/*---------------------------------------------------------------------------*\
| =========                 |                                                 |
| \\      /  F ield         | OpenFOAM: The Open Source CFD Toolbox           |
|  \\    /   O peration     | Version:  2406                                  |
|   \\  /    A nd           | Website:  www.openfoam.com                      |
|    \\/     M anipulation  |                                                 |
\*---------------------------------------------------------------------------*/
Build  : _630d60de3b-20240620 OPENFOAM=2406 version=v2406
Arch   : "LSB;label=32;scalar=64"
Exec   : buoyantSimpleFoam -parallel
Date   : Apr 18 2025
Time   : 17:54:55
Host   : volkan
PID    : 33465
I/O    : uncollated
Case   : /home/volkan/OpenFOAM/volkan-v2406/run/keksen_simple_cp
nProcs : 8
Hosts  :
(
    (volkan 8)
)
Pstream initialized with:
    floatTransfer      : false
    maxCommsSize       : 0
    nProcsSimpleSum    : 0
    nonBlockingExchange: 0 (tuning: 0)
    exchange algorithm : 0
    commsType          : nonBlocking
    polling iterations : 0
trapFpe: Floating point exception trapping enabled (FOAM_SIGFPE).
fileModificationChecking : Monitoring run-time modified files using timeStampMaster (fileModificationSkew 5, maxFileModificationPolls 20)
allowSystemOperations : Allowing user-supplied system call operations

// * * * * * * * * * * * * * * * * * * * * * * * * * * * * * * * * * * * * * //
Create time

Create mesh for time = 0


SIMPLE: convergence criteria
    field p_rgh	 tolerance 0.001
    field U	 tolerance 0.001
    field h	 tolerance 0.001
    field "(k|epsilon)"	 tolerance 0.001

Reading thermophysical properties

Selecting thermodynamics package 
{
    type            heRhoThermo;
    mixture         pureMixture;
    transport       const;
    thermo          hConst;
    equationOfState perfectGas;
    specie          specie;
    energy          sensibleEnthalpy;
}

Reading field U

Reading/calculating face flux field phi

Creating turbulence model

Selecting turbulence model type RAS
Selecting RAS turbulence model SpalartAllmaras
Selecting patchDistMethod meshWave
ft2 term: inactive

Reading g

Reading hRef
Calculating field g.h

Reading field p_rgh

Creating MRF zone list from MRFProperties
    creating MRF zone: MRF1
Radiation model not active: radiationProperties not found
Selecting radiationModel none
Creating finite volume options from "constant/fvOptions"

Selecting finite volume options type limitTemperature
    Source: limitT
    - selecting all cells
    - selected 1209602 cell(s) with volume 0.017344216

Starting time loop

Time = 1

DILUPBiCGStab:  Solving for h, Initial residual = 1, Final residual = 0.012031514, No Iterations 1
limitTemperature=limitT, Type=Lower, LimitedCells=0, CellsPercent=0, Tmin=300, UnlimitedTmin=453
limitTemperature=limitT, Type=Upper, LimitedCells=3480, CellsPercent=0.29, Tmax=473, UnlimitedTmax=453
GAMG:  Solving for p_rgh, Initial residual = 0.78799497, Final residual = 0.0056439273, No Iterations 8
GAMG:  Solving for p_rgh, Initial residual = 0.73236028, Final residual = 0.0041329979, No Iterations 5
GAMG:  Solving for p_rgh, Initial residual = 0.19331408, Final residual = 0.0017802624, No Iterations 6
time step continuity errors : sum local = 0.11854691, global = 0.11448572, cumulative = 0.11448572
rho min/max : 0.7348558 0.93186808
DILUPBiCGStab:  Solving for nuTilda, Initial residual = 1, Final residual = 0.085608299, No Iterations 2
bounding nuTilda, min: -8.2987481e-06 max: 7.9101074e-05 average: 9.2158515e-06
ExecutionTime = 2.59 s  ClockTime = 2 s

Time = 2

DILUPBiCGStab:  Solving for h, Initial residual = 0.15716703, Final residual = 0.0021716416, No Iterations 1
limitTemperature=limitT, Type=Lower, LimitedCells=0, CellsPercent=0, Tmin=300, UnlimitedTmin=426.24292
limitTemperature=limitT, Type=Upper, LimitedCells=0, CellsPercent=0, Tmax=473, UnlimitedTmax=473
GAMG:  Solving for p_rgh, Initial residual = 0.8384442, Final residual = 0.0047877553, No Iterations 7
GAMG:  Solving for p_rgh, Initial residual = 0.11279297, Final residual = 0.00059949023, No Iterations 4
GAMG:  Solving for p_rgh, Initial residual = 0.015674365, Final residual = 0.00014155256, No Iterations 3
time step continuity errors : sum local = 0.077523686, global = 0.074822401, cumulative = 0.18930812
rho min/max : 0.73291421 0.92941734
DILUPBiCGStab:  Solving for nuTilda, Initial residual = 0.67256738, Final residual = 0.059360511, No Iterations 9
bounding nuTilda, min: -5.1065846e-06 max: 0.0002155786 average: 1.7070376e-05
ExecutionTime = 4.1 s  ClockTime = 4 s

Time = 3

DILUPBiCGStab:  Solving for h, Initial residual = 0.080085799, Final residual = 0.0013369828, No Iterations 1
limitTemperature=limitT, Type=Lower, LimitedCells=0, CellsPercent=0, Tmin=300, UnlimitedTmin=412.81156
limitTemperature=limitT, Type=Upper, LimitedCells=0, CellsPercent=0, Tmax=473, UnlimitedTmax=466.25767
GAMG:  Solving for p_rgh, Initial residual = 0.35659127, Final residual = 0.0021419254, No Iterations 5
GAMG:  Solving for p_rgh, Initial residual = 0.037990988, Final residual = 0.00027259302, No Iterations 4
GAMG:  Solving for p_rgh, Initial residual = 0.0093949551, Final residual = 8.0122069e-05, No Iterations 3
time step continuity errors : sum local = 0.085675166, global = 0.084466268, cumulative = 0.27377439
rho min/max : 0.73141721 0.92753247
DILUPBiCGStab:  Solving for nuTilda, Initial residual = 0.6818272, Final residual = 0.064737525, No Iterations 13
bounding nuTilda, min: -7.8814896e-05 max: 0.00019872722 average: 1.1574741e-05
ExecutionTime = 5.64 s  ClockTime = 5 s

Time = 4

DILUPBiCGStab:  Solving for h, Initial residual = 0.05796867, Final residual = 0.00096918077, No Iterations 1
limitTemperature=limitT, Type=Lower, LimitedCells=0, CellsPercent=0, Tmin=300, UnlimitedTmin=402.67692
limitTemperature=limitT, Type=Upper, LimitedCells=0, CellsPercent=0, Tmax=473, UnlimitedTmax=461.95911
GAMG:  Solving for p_rgh, Initial residual = 0.28821724, Final residual = 0.0020782193, No Iterations 6
GAMG:  Solving for p_rgh, Initial residual = 0.038571075, Final residual = 0.00033454089, No Iterations 4
GAMG:  Solving for p_rgh, Initial residual = 0.0079148552, Final residual = 6.462894e-05, No Iterations 4
time step continuity errors : sum local = 0.074184011, global = 0.073196773, cumulative = 0.34697116
rho min/max : 0.730422 0.9262635
DILUPBiCGStab:  Solving for nuTilda, Initial residual = 0.60871146, Final residual = 0.055479488, No Iterations 3
bounding nuTilda, min: -6.2362297e-06 max: 0.00016788096 average: 1.4458443e-05
ExecutionTime = 7.05 s  ClockTime = 7 s

Time = 5

DILUPBiCGStab:  Solving for h, Initial residual = 0.044987274, Final residual = 0.00075049829, No Iterations 1
limitTemperature=limitT, Type=Lower, LimitedCells=0, CellsPercent=0, Tmin=300, UnlimitedTmin=395.20055
limitTemperature=limitT, Type=Upper, LimitedCells=519, CellsPercent=0.04, Tmax=473, UnlimitedTmax=470.81438
GAMG:  Solving for p_rgh, Initial residual = 0.20145211, Final residual = 0.0015475332, No Iterations 6
GAMG:  Solving for p_rgh, Initial residual = 0.025567066, Final residual = 0.00023272069, No Iterations 4
GAMG:  Solving for p_rgh, Initial residual = 0.0061882415, Final residual = 5.6677784e-05, No Iterations 3
time step continuity errors : sum local = 0.076274608, global = 0.07538116, cumulative = 0.42235232
rho min/max : 0.72944425 0.92502737
DILUPBiCGStab:  Solving for nuTilda, Initial residual = 0.69028206, Final residual = 0.053999182, No Iterations 3
bounding nuTilda, min: -6.7111283e-06 max: 0.00017430988 average: 1.1598442e-05
ExecutionTime = 8.43 s  ClockTime = 8 s

Time = 6

DILUPBiCGStab:  Solving for h, Initial residual = 0.036959596, Final residual = 0.00060823384, No Iterations 1
limitTemperature=limitT, Type=Lower, LimitedCells=0, CellsPercent=0, Tmin=300, UnlimitedTmin=389.69252
limitTemperature=limitT, Type=Upper, LimitedCells=2520, CellsPercent=0.21, Tmax=473, UnlimitedTmax=473
GAMG:  Solving for p_rgh, Initial residual = 0.11054056, Final residual = 0.00064749058, No Iterations 5
GAMG:  Solving for p_rgh, Initial residual = 0.01077421, Final residual = 7.5531908e-05, No Iterations 4
GAMG:  Solving for p_rgh, Initial residual = 0.0043560509, Final residual = 3.3012287e-05, No Iterations 2
time step continuity errors : sum local = 0.070105578, global = 0.069527641, cumulative = 0.49187996
rho min/max : 0.72850544 0.92382975
DILUPBiCGStab:  Solving for nuTilda, Initial residual = 0.59713154, Final residual = 0.045541741, No Iterations 3
bounding nuTilda, min: -6.4787658e-06 max: 0.00017804172 average: 1.2961933e-05
ExecutionTime = 9.78 s  ClockTime = 10 s

Time = 7

DILUPBiCGStab:  Solving for h, Initial residual = 0.030972309, Final residual = 0.0005056565, No Iterations 1
limitTemperature=limitT, Type=Lower, LimitedCells=0, CellsPercent=0, Tmin=300, UnlimitedTmin=385.65625
limitTemperature=limitT, Type=Upper, LimitedCells=3166, CellsPercent=0.26, Tmax=473, UnlimitedTmax=473
GAMG:  Solving for p_rgh, Initial residual = 0.080362671, Final residual = 0.00050499837, No Iterations 5
GAMG:  Solving for p_rgh, Initial residual = 0.0086999077, Final residual = 7.5880367e-05, No Iterations 5
GAMG:  Solving for p_rgh, Initial residual = 0.0038945519, Final residual = 3.2932927e-05, No Iterations 3
time step continuity errors : sum local = 0.070023957, global = 0.069385819, cumulative = 0.56126578
rho min/max : 0.72758642 0.92266222
DILUPBiCGStab:  Solving for nuTilda, Initial residual = 0.66992885, Final residual = 0.059565163, No Iterations 10
bounding nuTilda, min: -0.0001007361 max: 0.00018044423 average: 1.111218e-05
ExecutionTime = 11.29 s  ClockTime = 11 s

Time = 8

DILUPBiCGStab:  Solving for h, Initial residual = 0.026661195, Final residual = 0.00043224478, No Iterations 1
limitTemperature=limitT, Type=Lower, LimitedCells=0, CellsPercent=0, Tmin=300, UnlimitedTmin=382.69874
limitTemperature=limitT, Type=Upper, LimitedCells=3381, CellsPercent=0.28, Tmax=473, UnlimitedTmax=473
GAMG:  Solving for p_rgh, Initial residual = 0.062755495, Final residual = 0.00046886737, No Iterations 5
GAMG:  Solving for p_rgh, Initial residual = 0.0071682006, Final residual = 6.9730804e-05, No Iterations 4
GAMG:  Solving for p_rgh, Initial residual = 0.0034583117, Final residual = 1.8385082e-05, No Iterations 3
time step continuity errors : sum local = 0.066177135, global = 0.065783591, cumulative = 0.62704937
rho min/max : 0.72670605 0.92154353
DILUPBiCGStab:  Solving for nuTilda, Initial residual = 0.59987398, Final residual = 0.052021426, No Iterations 2
bounding nuTilda, min: -6.4009074e-06 max: 0.00018248515 average: 1.23586e-05
ExecutionTime = 12.62 s  ClockTime = 12 s

Time = 9

DILUPBiCGStab:  Solving for h, Initial residual = 0.023215427, Final residual = 0.00037575334, No Iterations 1
limitTemperature=limitT, Type=Lower, LimitedCells=0, CellsPercent=0, Tmin=300, UnlimitedTmin=380.52657
limitTemperature=limitT, Type=Upper, LimitedCells=3498, CellsPercent=0.29, Tmax=473, UnlimitedTmax=473
GAMG:  Solving for p_rgh, Initial residual = 0.048166805, Final residual = 0.00030954811, No Iterations 4
GAMG:  Solving for p_rgh, Initial residual = 0.0052796978, Final residual = 4.4966617e-05, No Iterations 3
GAMG:  Solving for p_rgh, Initial residual = 0.0030679219, Final residual = 2.3124862e-05, No Iterations 2
time step continuity errors : sum local = 0.065305703, global = 0.064796341, cumulative = 0.69184571
rho min/max : 0.72586119 0.92047269
DILUPBiCGStab:  Solving for nuTilda, Initial residual = 0.6759926, Final residual = 0.053956161, No Iterations 2
bounding nuTilda, min: -8.2370122e-05 max: 0.00018500314 average: 1.0956121e-05
ExecutionTime = 13.86 s  ClockTime = 14 s

Time = 10

DILUPBiCGStab:  Solving for h, Initial residual = 0.020580572, Final residual = 0.00033457035, No Iterations 1
limitTemperature=limitT, Type=Lower, LimitedCells=0, CellsPercent=0, Tmin=300, UnlimitedTmin=378.91974
limitTemperature=limitT, Type=Upper, LimitedCells=3631, CellsPercent=0.3, Tmax=473, UnlimitedTmax=473
GAMG:  Solving for p_rgh, Initial residual = 0.038914278, Final residual = 0.00027260459, No Iterations 4
GAMG:  Solving for p_rgh, Initial residual = 0.0045553634, Final residual = 4.0806268e-05, No Iterations 3
GAMG:  Solving for p_rgh, Initial residual = 0.0028156261, Final residual = 1.7599445e-05, No Iterations 2
time step continuity errors : sum local = 0.062862622, global = 0.062434694, cumulative = 0.75428041
rho min/max : 0.72505823 0.91945454
DILUPBiCGStab:  Solving for nuTilda, Initial residual = 0.6019374, Final residual = 0.048476519, No Iterations 3
bounding nuTilda, min: -3.5203978e-06 max: 0.00018481895 average: 1.247182e-05
ExecutionTime = 15.13 s  ClockTime = 15 s

Time = 11

DILUPBiCGStab:  Solving for h, Initial residual = 0.0183914, Final residual = 0.00030275521, No Iterations 1
limitTemperature=limitT, Type=Lower, LimitedCells=0, CellsPercent=0, Tmin=300, UnlimitedTmin=377.72172
limitTemperature=limitT, Type=Upper, LimitedCells=3674, CellsPercent=0.3, Tmax=473, UnlimitedTmax=473
GAMG:  Solving for p_rgh, Initial residual = 0.032198611, Final residual = 0.0002858673, No Iterations 4
GAMG:  Solving for p_rgh, Initial residual = 0.004295269, Final residual = 2.4215258e-05, No Iterations 4
GAMG:  Solving for p_rgh, Initial residual = 0.0026891021, Final residual = 2.0411264e-05, No Iterations 1
time step continuity errors : sum local = 0.061769346, global = 0.061263296, cumulative = 0.8155437
rho min/max : 0.72429593 0.91848777
DILUPBiCGStab:  Solving for nuTilda, Initial residual = 0.72713319, Final residual = 0.067656849, No Iterations 1
bounding nuTilda, min: -2.3677037e-05 max: 0.00018504415 average: 1.1270801e-05
ExecutionTime = 16.35 s  ClockTime = 16 s

Time = 12

DILUPBiCGStab:  Solving for h, Initial residual = 0.016701052, Final residual = 0.00027743297, No Iterations 1
limitTemperature=limitT, Type=Lower, LimitedCells=0, CellsPercent=0, Tmin=300, UnlimitedTmin=376.82016
limitTemperature=limitT, Type=Upper, LimitedCells=3715, CellsPercent=0.31, Tmax=473, UnlimitedTmax=473
GAMG:  Solving for p_rgh, Initial residual = 0.02719143, Final residual = 0.00019723104, No Iterations 4
GAMG:  Solving for p_rgh, Initial residual = 0.0038125617, Final residual = 3.0508281e-05, No Iterations 3
GAMG:  Solving for p_rgh, Initial residual = 0.0025320962, Final residual = 2.2469746e-05, No Iterations 1
time step continuity errors : sum local = 0.060142376, global = 0.05956152, cumulative = 0.87510522
rho min/max : 0.72357448 0.91757282
DILUPBiCGStab:  Solving for nuTilda, Initial residual = 0.49310777, Final residual = 0.043777063, No Iterations 4
bounding nuTilda, min: -7.5967677e-06 max: 0.00018332819 average: 1.2635727e-05
ExecutionTime = 17.59 s  ClockTime = 17 s

Time = 13

DILUPBiCGStab:  Solving for h, Initial residual = 0.015245496, Final residual = 0.00025558194, No Iterations 1
limitTemperature=limitT, Type=Lower, LimitedCells=0, CellsPercent=0, Tmin=300, UnlimitedTmin=376.13471
limitTemperature=limitT, Type=Upper, LimitedCells=3741, CellsPercent=0.31, Tmax=473, UnlimitedTmax=473
GAMG:  Solving for p_rgh, Initial residual = 0.023782291, Final residual = 0.0001588615, No Iterations 4
GAMG:  Solving for p_rgh, Initial residual = 0.0035510764, Final residual = 2.2037921e-05, No Iterations 3
GAMG:  Solving for p_rgh, Initial residual = 0.0024252679, Final residual = 1.7507061e-05, No Iterations 1
time step continuity errors : sum local = 0.058892251, global = 0.058431538, cumulative = 0.93353676
rho min/max : 0.72288271 0.91669556
DILUPBiCGStab:  Solving for nuTilda, Initial residual = 0.71411124, Final residual = 0.047499704, No Iterations 2
bounding nuTilda, min: -0.00010577662 max: 0.00084726195 average: 1.1531742e-05
ExecutionTime = 18.81 s  ClockTime = 19 s

Time = 14

DILUPBiCGStab:  Solving for h, Initial residual = 0.014094343, Final residual = 0.00023853054, No Iterations 1
limitTemperature=limitT, Type=Lower, LimitedCells=0, CellsPercent=0, Tmin=300, UnlimitedTmin=375.607
limitTemperature=limitT, Type=Upper, LimitedCells=3766, CellsPercent=0.31, Tmax=473, UnlimitedTmax=473
GAMG:  Solving for p_rgh, Initial residual = 0.021289944, Final residual = 0.00014219084, No Iterations 4
GAMG:  Solving for p_rgh, Initial residual = 0.0033534573, Final residual = 2.0510036e-05, No Iterations 3
GAMG:  Solving for p_rgh, Initial residual = 0.0023375918, Final residual = 1.5953177e-05, No Iterations 1
time step continuity errors : sum local = 0.057534211, global = 0.057104823, cumulative = 0.99064158
rho min/max : 0.72222106 0.91585653
DILUPBiCGStab:  Solving for nuTilda, Initial residual = 0.52602897, Final residual = 0.044696647, No Iterations 4
bounding nuTilda, min: -6.7004569e-05 max: 0.00027607737 average: 1.4051135e-05
ExecutionTime = 20.09 s  ClockTime = 20 s

Time = 15

DILUPBiCGStab:  Solving for h, Initial residual = 0.013034833, Final residual = 0.00022278677, No Iterations 1
limitTemperature=limitT, Type=Lower, LimitedCells=0, CellsPercent=0, Tmin=300, UnlimitedTmin=375.19531
limitTemperature=limitT, Type=Upper, LimitedCells=3784, CellsPercent=0.31, Tmax=473, UnlimitedTmax=473
GAMG:  Solving for p_rgh, Initial residual = 0.019506612, Final residual = 0.00013305275, No Iterations 4
GAMG:  Solving for p_rgh, Initial residual = 0.0032280765, Final residual = 1.9118453e-05, No Iterations 3
GAMG:  Solving for p_rgh, Initial residual = 0.0022799803, Final residual = 1.5328221e-05, No Iterations 1
time step continuity errors : sum local = 0.056484468, global = 0.056073247, cumulative = 1.0467148
rho min/max : 0.72158246 0.91504674
DILUPBiCGStab:  Solving for nuTilda, Initial residual = 0.78098958, Final residual = 0.075887587, No Iterations 1
bounding nuTilda, min: -1.4031299e-05 max: 0.00022452892 average: 1.2596421e-05
ExecutionTime = 21.38 s  ClockTime = 21 s

Time = 16

DILUPBiCGStab:  Solving for h, Initial residual = 0.012248659, Final residual = 0.00021114291, No Iterations 1
limitTemperature=limitT, Type=Lower, LimitedCells=0, CellsPercent=0, Tmin=300, UnlimitedTmin=374.8696
limitTemperature=limitT, Type=Upper, LimitedCells=3792, CellsPercent=0.31, Tmax=473, UnlimitedTmax=473
GAMG:  Solving for p_rgh, Initial residual = 0.018258817, Final residual = 0.00012417699, No Iterations 4
GAMG:  Solving for p_rgh, Initial residual = 0.0030988413, Final residual = 1.8649783e-05, No Iterations 3
GAMG:  Solving for p_rgh, Initial residual = 0.002221842, Final residual = 1.4928213e-05, No Iterations 1
time step continuity errors : sum local = 0.055380401, global = 0.054977584, cumulative = 1.1016924
rho min/max : 0.72096936 0.91426929
DILUPBiCGStab:  Solving for nuTilda, Initial residual = 0.45144522, Final residual = 0.036624853, No Iterations 6
bounding nuTilda, min: -1.1562713e-05 max: 0.00027568327 average: 1.631812e-05
ExecutionTime = 22.73 s  ClockTime = 22 s

Time = 17

DILUPBiCGStab:  Solving for h, Initial residual = 0.011409502, Final residual = 0.00019794235, No Iterations 1
limitTemperature=limitT, Type=Lower, LimitedCells=0, CellsPercent=0, Tmin=300, UnlimitedTmin=374.61334
limitTemperature=limitT, Type=Upper, LimitedCells=3804, CellsPercent=0.31, Tmax=473, UnlimitedTmax=473
GAMG:  Solving for p_rgh, Initial residual = 0.017526526, Final residual = 0.00011643687, No Iterations 4
GAMG:  Solving for p_rgh, Initial residual = 0.003017738, Final residual = 1.7731117e-05, No Iterations 3
GAMG:  Solving for p_rgh, Initial residual = 0.0021874152, Final residual = 1.4329316e-05, No Iterations 1
time step continuity errors : sum local = 0.054428543, global = 0.054044347, cumulative = 1.1557368
rho min/max : 0.72037209 0.9135119
DILUPBiCGStab:  Solving for nuTilda, Initial residual = 0.76496709, Final residual = 0.063479003, No Iterations 1
bounding nuTilda, min: -1.5124277e-05 max: 0.00028990583 average: 1.4316367e-05
ExecutionTime = 24.03 s  ClockTime = 24 s

Time = 18

DILUPBiCGStab:  Solving for h, Initial residual = 0.010856728, Final residual = 0.00018976784, No Iterations 1
limitTemperature=limitT, Type=Lower, LimitedCells=0, CellsPercent=0, Tmin=300, UnlimitedTmin=374.40926
limitTemperature=limitT, Type=Upper, LimitedCells=3827, CellsPercent=0.32, Tmax=473, UnlimitedTmax=473
GAMG:  Solving for p_rgh, Initial residual = 0.017003684, Final residual = 0.00010765133, No Iterations 4
GAMG:  Solving for p_rgh, Initial residual = 0.0029221736, Final residual = 1.6622126e-05, No Iterations 3
GAMG:  Solving for p_rgh, Initial residual = 0.0021438358, Final residual = 1.3425228e-05, No Iterations 1
time step continuity errors : sum local = 0.053471991, global = 0.053111187, cumulative = 1.2088479
rho min/max : 0.7197957 0.91278098
DILUPBiCGStab:  Solving for nuTilda, Initial residual = 0.43809559, Final residual = 0.04002355, No Iterations 5
bounding nuTilda, min: -2.0606316e-05 max: 0.00035151507 average: 1.6786855e-05
ExecutionTime = 25.39 s  ClockTime = 25 s

Time = 19

DILUPBiCGStab:  Solving for h, Initial residual = 0.010186556, Final residual = 0.00017896433, No Iterations 1
limitTemperature=limitT, Type=Lower, LimitedCells=0, CellsPercent=0, Tmin=300, UnlimitedTmin=374.2428
limitTemperature=limitT, Type=Upper, LimitedCells=3848, CellsPercent=0.32, Tmax=473, UnlimitedTmax=473
GAMG:  Solving for p_rgh, Initial residual = 0.016716809, Final residual = 9.9923619e-05, No Iterations 4
GAMG:  Solving for p_rgh, Initial residual = 0.0028772591, Final residual = 1.5365198e-05, No Iterations 3
GAMG:  Solving for p_rgh, Initial residual = 0.0021347152, Final residual = 1.2570142e-05, No Iterations 1
time step continuity errors : sum local = 0.052602384, global = 0.052269521, cumulative = 1.2611175
rho min/max : 0.71923104 0.91206494
DILUPBiCGStab:  Solving for nuTilda, Initial residual = 0.74892925, Final residual = 0.063340442, No Iterations 1
bounding nuTilda, min: -2.7382997e-05 max: 0.00036995673 average: 1.489118e-05
ExecutionTime = 26.69 s  ClockTime = 26 s

Time = 20

DILUPBiCGStab:  Solving for h, Initial residual = 0.0097707425, Final residual = 0.00017289226, No Iterations 1
limitTemperature=limitT, Type=Lower, LimitedCells=0, CellsPercent=0, Tmin=300, UnlimitedTmin=374.10438
limitTemperature=limitT, Type=Upper, LimitedCells=3864, CellsPercent=0.32, Tmax=473, UnlimitedTmax=473
GAMG:  Solving for p_rgh, Initial residual = 0.016508222, Final residual = 9.2167581e-05, No Iterations 4
GAMG:  Solving for p_rgh, Initial residual = 0.0028135182, Final residual = 1.4169214e-05, No Iterations 3
GAMG:  Solving for p_rgh, Initial residual = 0.0021117, Final residual = 1.1701931e-05, No Iterations 1
time step continuity errors : sum local = 0.051764017, global = 0.051455664, cumulative = 1.3125731
rho min/max : 0.71868455 0.91137194
DILUPBiCGStab:  Solving for nuTilda, Initial residual = 0.40772339, Final residual = 0.032575125, No Iterations 6
bounding nuTilda, min: -1.6384079e-05 max: 0.00045651431 average: 1.8201041e-05
ExecutionTime = 28.03 s  ClockTime = 28 s

Time = 21

DILUPBiCGStab:  Solving for h, Initial residual = 0.0091608007, Final residual = 0.00016262929, No Iterations 1
limitTemperature=limitT, Type=Lower, LimitedCells=0, CellsPercent=0, Tmin=300, UnlimitedTmin=373.9873
limitTemperature=limitT, Type=Upper, LimitedCells=3875, CellsPercent=0.32, Tmax=473, UnlimitedTmax=473
GAMG:  Solving for p_rgh, Initial residual = 0.016456688, Final residual = 8.687313e-05, No Iterations 4
GAMG:  Solving for p_rgh, Initial residual = 0.0028081485, Final residual = 1.33606e-05, No Iterations 3
GAMG:  Solving for p_rgh, Initial residual = 0.0021269592, Final residual = 1.1170054e-05, No Iterations 1
time step continuity errors : sum local = 0.050982311, global = 0.050695283, cumulative = 1.3632684
rho min/max : 0.71814753 0.91069094
DILUPBiCGStab:  Solving for nuTilda, Initial residual = 0.72844243, Final residual = 0.061195629, No Iterations 1
bounding nuTilda, min: -1.7531292e-05 max: 0.00047648847 average: 1.6055243e-05
ExecutionTime = 29.3 s  ClockTime = 29 s

Time = 22

DILUPBiCGStab:  Solving for h, Initial residual = 0.0088494366, Final residual = 0.000158414, No Iterations 1
limitTemperature=limitT, Type=Lower, LimitedCells=0, CellsPercent=0, Tmin=300, UnlimitedTmin=373.88687
limitTemperature=limitT, Type=Upper, LimitedCells=3882, CellsPercent=0.32, Tmax=473, UnlimitedTmax=473
GAMG:  Solving for p_rgh, Initial residual = 0.016550151, Final residual = 8.0771317e-05, No Iterations 4
GAMG:  Solving for p_rgh, Initial residual = 0.0027585644, Final residual = 1.2412492e-05, No Iterations 3
GAMG:  Solving for p_rgh, Initial residual = 0.0021079858, Final residual = 1.0495199e-05, No Iterations 1
time step continuity errors : sum local = 0.050240686, global = 0.049972869, cumulative = 1.4132413
rho min/max : 0.71762653 0.91003026
DILUPBiCGStab:  Solving for nuTilda, Initial residual = 0.35750866, Final residual = 0.025406599, No Iterations 6
bounding nuTilda, min: -2.0712757e-05 max: 0.00056518001 average: 1.9016927e-05
ExecutionTime = 30.62 s  ClockTime = 30 s

Time = 23

DILUPBiCGStab:  Solving for h, Initial residual = 0.0083387527, Final residual = 0.00014961559, No Iterations 1
limitTemperature=limitT, Type=Lower, LimitedCells=0, CellsPercent=0, Tmin=300, UnlimitedTmin=373.79982
limitTemperature=limitT, Type=Upper, LimitedCells=3897, CellsPercent=0.32, Tmax=473, UnlimitedTmax=473
GAMG:  Solving for p_rgh, Initial residual = 0.016551074, Final residual = 7.8120895e-05, No Iterations 4
GAMG:  Solving for p_rgh, Initial residual = 0.0027819537, Final residual = 2.765972e-05, No Iterations 2
GAMG:  Solving for p_rgh, Initial residual = 0.002151153, Final residual = 1.8337233e-05, No Iterations 1
time step continuity errors : sum local = 0.049738606, global = 0.049284188, cumulative = 1.4625255
rho min/max : 0.71711193 0.9093777
DILUPBiCGStab:  Solving for nuTilda, Initial residual = 0.70079532, Final residual = 0.050160055, No Iterations 1
bounding nuTilda, min: -1.5915077e-05 max: 0.00057413383 average: 1.6854632e-05
ExecutionTime = 31.85 s  ClockTime = 32 s

Time = 24

DILUPBiCGStab:  Solving for h, Initial residual = 0.0081077081, Final residual = 0.00014736814, No Iterations 1
limitTemperature=limitT, Type=Lower, LimitedCells=0, CellsPercent=0, Tmin=300, UnlimitedTmin=373.72368
limitTemperature=limitT, Type=Upper, LimitedCells=3906, CellsPercent=0.32, Tmax=473, UnlimitedTmax=473
GAMG:  Solving for p_rgh, Initial residual = 0.016651011, Final residual = 7.3931842e-05, No Iterations 4
GAMG:  Solving for p_rgh, Initial residual = 0.0027436798, Final residual = 2.6287187e-05, No Iterations 2
GAMG:  Solving for p_rgh, Initial residual = 0.0021347199, Final residual = 1.7514494e-05, No Iterations 1
time step continuity errors : sum local = 0.049062667, global = 0.048631685, cumulative = 1.5111572
rho min/max : 0.71661186 0.90874356
DILUPBiCGStab:  Solving for nuTilda, Initial residual = 0.31879496, Final residual = 0.026704179, No Iterations 8
bounding nuTilda, min: -3.1059183e-05 max: 0.00063302749 average: 2.0020855e-05
ExecutionTime = 33.21 s  ClockTime = 33 s

Time = 25

DILUPBiCGStab:  Solving for h, Initial residual = 0.0077247703, Final residual = 0.00014052541, No Iterations 1
limitTemperature=limitT, Type=Lower, LimitedCells=0, CellsPercent=0, Tmin=300, UnlimitedTmin=373.65667
limitTemperature=limitT, Type=Upper, LimitedCells=3917, CellsPercent=0.32, Tmax=473, UnlimitedTmax=473
GAMG:  Solving for p_rgh, Initial residual = 0.01647016, Final residual = 7.2122465e-05, No Iterations 4
GAMG:  Solving for p_rgh, Initial residual = 0.002784756, Final residual = 2.6068698e-05, No Iterations 2
GAMG:  Solving for p_rgh, Initial residual = 0.0021782887, Final residual = 1.7557546e-05, No Iterations 1
time step continuity errors : sum local = 0.048423429, global = 0.048005906, cumulative = 1.5591631
rho min/max : 0.71611735 0.90811647
DILUPBiCGStab:  Solving for nuTilda, Initial residual = 0.69630948, Final residual = 0.047769885, No Iterations 1
bounding nuTilda, min: -3.2991385e-05 max: 0.00063868896 average: 1.758354e-05
ExecutionTime = 34.48 s  ClockTime = 34 s

Time = 26

DILUPBiCGStab:  Solving for h, Initial residual = 0.0075673015, Final residual = 0.0001393583, No Iterations 1
limitTemperature=limitT, Type=Lower, LimitedCells=0, CellsPercent=0, Tmin=300, UnlimitedTmin=373.59738
limitTemperature=limitT, Type=Upper, LimitedCells=3930, CellsPercent=0.32, Tmax=473, UnlimitedTmax=473
GAMG:  Solving for p_rgh, Initial residual = 0.016515903, Final residual = 6.7422836e-05, No Iterations 4
GAMG:  Solving for p_rgh, Initial residual = 0.0027465157, Final residual = 2.4547471e-05, No Iterations 2
GAMG:  Solving for p_rgh, Initial residual = 0.0021568323, Final residual = 1.6683956e-05, No Iterations 1
time step continuity errors : sum local = 0.04780795, global = 0.047412997, cumulative = 1.6065761
rho min/max : 0.71563716 0.90750753
DILUPBiCGStab:  Solving for nuTilda, Initial residual = 0.28691938, Final residual = 0.01494024, No Iterations 15
bounding nuTilda, min: -3.287267e-05 max: 0.00065878103 average: 2.0168446e-05
ExecutionTime = 35.99 s  ClockTime = 36 s

Time = 27

DILUPBiCGStab:  Solving for h, Initial residual = 0.0073118794, Final residual = 0.0001342247, No Iterations 1
limitTemperature=limitT, Type=Lower, LimitedCells=0, CellsPercent=0, Tmin=300, UnlimitedTmin=373.54477
limitTemperature=limitT, Type=Upper, LimitedCells=3940, CellsPercent=0.33, Tmax=473, UnlimitedTmax=473
GAMG:  Solving for p_rgh, Initial residual = 0.016354192, Final residual = 6.6743737e-05, No Iterations 4
GAMG:  Solving for p_rgh, Initial residual = 0.0027950838, Final residual = 2.4514935e-05, No Iterations 2
GAMG:  Solving for p_rgh, Initial residual = 0.0022012068, Final residual = 1.6771697e-05, No Iterations 1
time step continuity errors : sum local = 0.047227067, global = 0.046842429, cumulative = 1.6534185
rho min/max : 0.7151613 0.90690409
DILUPBiCGStab:  Solving for nuTilda, Initial residual = 0.68387092, Final residual = 0.045219855, No Iterations 1
bounding nuTilda, min: -3.9685814e-05 max: 0.00066089447 average: 1.7722925e-05
ExecutionTime = 37.21 s  ClockTime = 37 s

Time = 28

DILUPBiCGStab:  Solving for h, Initial residual = 0.0072024035, Final residual = 0.00013387322, No Iterations 1
limitTemperature=limitT, Type=Lower, LimitedCells=0, CellsPercent=0, Tmin=300, UnlimitedTmin=373.49792
limitTemperature=limitT, Type=Upper, LimitedCells=3947, CellsPercent=0.33, Tmax=473, UnlimitedTmax=473
GAMG:  Solving for p_rgh, Initial residual = 0.016422887, Final residual = 0.00016230337, No Iterations 3
GAMG:  Solving for p_rgh, Initial residual = 0.0028290169, Final residual = 2.0113379e-05, No Iterations 3
GAMG:  Solving for p_rgh, Initial residual = 0.0021820987, Final residual = 1.5528165e-05, No Iterations 1
time step continuity errors : sum local = 0.04665379, global = 0.046300393, cumulative = 1.6997189
rho min/max : 0.71469882 0.90631761
DILUPBiCGStab:  Solving for nuTilda, Initial residual = 0.26826948, Final residual = 0.023826361, No Iterations 4
bounding nuTilda, min: -2.6255941e-05 max: 0.00065532468 average: 1.9618172e-05
ExecutionTime = 38.48 s  ClockTime = 38 s

Time = 29

DILUPBiCGStab:  Solving for h, Initial residual = 0.0070445006, Final residual = 0.00013066906, No Iterations 1
limitTemperature=limitT, Type=Lower, LimitedCells=0, CellsPercent=0, Tmin=300, UnlimitedTmin=373.45614
limitTemperature=limitT, Type=Upper, LimitedCells=3943, CellsPercent=0.33, Tmax=473, UnlimitedTmax=473
GAMG:  Solving for p_rgh, Initial residual = 0.016370939, Final residual = 6.4038186e-05, No Iterations 4
GAMG:  Solving for p_rgh, Initial residual = 0.0028035549, Final residual = 2.3369016e-05, No Iterations 2
GAMG:  Solving for p_rgh, Initial residual = 0.0022127055, Final residual = 1.6070833e-05, No Iterations 1
time step continuity errors : sum local = 0.046135301, global = 0.045778041, cumulative = 1.7454969
rho min/max : 0.71423893 0.90573441
DILUPBiCGStab:  Solving for nuTilda, Initial residual = 0.64381326, Final residual = 0.057096932, No Iterations 1
bounding nuTilda, min: -0.00027410482 max: 0.0006537184 average: 1.7651149e-05
ExecutionTime = 39.69 s  ClockTime = 39 s

Time = 30

DILUPBiCGStab:  Solving for h, Initial residual = 0.0069558484, Final residual = 0.00013012394, No Iterations 1
limitTemperature=limitT, Type=Lower, LimitedCells=0, CellsPercent=0, Tmin=300, UnlimitedTmin=373.41876
limitTemperature=limitT, Type=Upper, LimitedCells=3949, CellsPercent=0.33, Tmax=473, UnlimitedTmax=473
GAMG:  Solving for p_rgh, Initial residual = 0.016489609, Final residual = 0.00016280876, No Iterations 3
GAMG:  Solving for p_rgh, Initial residual = 0.0028477134, Final residual = 1.9309086e-05, No Iterations 3
GAMG:  Solving for p_rgh, Initial residual = 0.0021996378, Final residual = 1.4980039e-05, No Iterations 1
time step continuity errors : sum local = 0.045609295, global = 0.04527883, cumulative = 1.7907758
rho min/max : 0.71378803 0.90516261
DILUPBiCGStab:  Solving for nuTilda, Initial residual = 0.24897956, Final residual = 0.023939661, No Iterations 4
bounding nuTilda, min: -4.0718671e-05 max: 0.0006333071 average: 1.9365777e-05
ExecutionTime = 40.98 s  ClockTime = 41 s

Time = 31

DILUPBiCGStab:  Solving for h, Initial residual = 0.0068403352, Final residual = 0.00012741769, No Iterations 1
limitTemperature=limitT, Type=Lower, LimitedCells=0, CellsPercent=0, Tmin=300, UnlimitedTmin=373.38528
limitTemperature=limitT, Type=Upper, LimitedCells=3951, CellsPercent=0.33, Tmax=473, UnlimitedTmax=473
GAMG:  Solving for p_rgh, Initial residual = 0.016472818, Final residual = 6.292647e-05, No Iterations 4
GAMG:  Solving for p_rgh, Initial residual = 0.0028253729, Final residual = 2.2029836e-05, No Iterations 2
GAMG:  Solving for p_rgh, Initial residual = 0.0022317885, Final residual = 1.5165854e-05, No Iterations 1
time step continuity errors : sum local = 0.04512362, global = 0.044796949, cumulative = 1.8355727
rho min/max : 0.71333988 0.90459432
DILUPBiCGStab:  Solving for nuTilda, Initial residual = 0.67582772, Final residual = 0.038008637, No Iterations 3
bounding nuTilda, min: -6.845734e-05 max: 0.00062627756 average: 1.6917807e-05
ExecutionTime = 42.25 s  ClockTime = 42 s

Time = 32

DILUPBiCGStab:  Solving for h, Initial residual = 0.0067938422, Final residual = 0.00012796711, No Iterations 1
limitTemperature=limitT, Type=Lower, LimitedCells=0, CellsPercent=0, Tmin=300, UnlimitedTmin=373.35522
limitTemperature=limitT, Type=Upper, LimitedCells=3948, CellsPercent=0.33, Tmax=473, UnlimitedTmax=473
GAMG:  Solving for p_rgh, Initial residual = 0.016615299, Final residual = 0.00016513326, No Iterations 3
GAMG:  Solving for p_rgh, Initial residual = 0.0028656318, Final residual = 1.80424e-05, No Iterations 3
GAMG:  Solving for p_rgh, Initial residual = 0.0022129428, Final residual = 1.3969912e-05, No Iterations 1
time step continuity errors : sum local = 0.044635128, global = 0.044335432, cumulative = 1.8799081
rho min/max : 0.7128998 0.90403626
DILUPBiCGStab:  Solving for nuTilda, Initial residual = 0.2988856, Final residual = 0.028913881, No Iterations 6
bounding nuTilda, min: -3.032594e-05 max: 0.00059847 average: 1.964638e-05
ExecutionTime = 43.59 s  ClockTime = 43 s

Time = 33

DILUPBiCGStab:  Solving for h, Initial residual = 0.0066870952, Final residual = 0.00012552615, No Iterations 1
limitTemperature=limitT, Type=Lower, LimitedCells=0, CellsPercent=0, Tmin=300, UnlimitedTmin=373.32821
limitTemperature=limitT, Type=Upper, LimitedCells=3945, CellsPercent=0.33, Tmax=473, UnlimitedTmax=473
GAMG:  Solving for p_rgh, Initial residual = 0.016657373, Final residual = 6.3700794e-05, No Iterations 4
GAMG:  Solving for p_rgh, Initial residual = 0.0028594121, Final residual = 2.0947052e-05, No Iterations 2
GAMG:  Solving for p_rgh, Initial residual = 0.0022595178, Final residual = 1.4200292e-05, No Iterations 1
time step continuity errors : sum local = 0.04418458, global = 0.04388901, cumulative = 1.9237971
rho min/max : 0.71246029 0.90347892
DILUPBiCGStab:  Solving for nuTilda, Initial residual = 0.71805386, Final residual = 0.062997988, No Iterations 1
bounding nuTilda, min: -5.9411122e-05 max: 0.00059462075 average: 1.7261693e-05
ExecutionTime = 44.82 s  ClockTime = 45 s

Time = 34

DILUPBiCGStab:  Solving for h, Initial residual = 0.006649381, Final residual = 0.00012595231, No Iterations 1
limitTemperature=limitT, Type=Lower, LimitedCells=0, CellsPercent=0, Tmin=300, UnlimitedTmin=373.30386
limitTemperature=limitT, Type=Upper, LimitedCells=3938, CellsPercent=0.33, Tmax=473, UnlimitedTmax=473
GAMG:  Solving for p_rgh, Initial residual = 0.016943964, Final residual = 0.00016779724, No Iterations 3
GAMG:  Solving for p_rgh, Initial residual = 0.0028852324, Final residual = 1.7241196e-05, No Iterations 3
GAMG:  Solving for p_rgh, Initial residual = 0.0022278856, Final residual = 1.3073867e-05, No Iterations 1
time step continuity errors : sum local = 0.04373417, global = 0.043460919, cumulative = 1.9672581
rho min/max : 0.71202995 0.90293321
DILUPBiCGStab:  Solving for nuTilda, Initial residual = 0.27239032, Final residual = 0.021927931, No Iterations 6
bounding nuTilda, min: -3.7633005e-05 max: 0.00056047256 average: 1.9297944e-05
ExecutionTime = 46.16 s  ClockTime = 46 s

Time = 35

DILUPBiCGStab:  Solving for h, Initial residual = 0.0065860274, Final residual = 0.00012389972, No Iterations 1
limitTemperature=limitT, Type=Lower, LimitedCells=0, CellsPercent=0, Tmin=300, UnlimitedTmin=373.28193
limitTemperature=limitT, Type=Upper, LimitedCells=3936, CellsPercent=0.33, Tmax=473, UnlimitedTmax=473
GAMG:  Solving for p_rgh, Initial residual = 0.016785756, Final residual = 6.3506736e-05, No Iterations 4
GAMG:  Solving for p_rgh, Initial residual = 0.002873429, Final residual = 1.9767801e-05, No Iterations 2
GAMG:  Solving for p_rgh, Initial residual = 0.0022707493, Final residual = 1.3128892e-05, No Iterations 1
time step continuity errors : sum local = 0.043313422, global = 0.043046259, cumulative = 2.0103043
rho min/max : 0.71160074 0.90238893
DILUPBiCGStab:  Solving for nuTilda, Initial residual = 0.75392498, Final residual = 0.043143906, No Iterations 1
bounding nuTilda, min: -2.5737268e-05 max: 0.00055583395 average: 1.6810177e-05
ExecutionTime = 47.35 s  ClockTime = 47 s

Time = 36

DILUPBiCGStab:  Solving for h, Initial residual = 0.006569708, Final residual = 0.00012537543, No Iterations 1
limitTemperature=limitT, Type=Lower, LimitedCells=0, CellsPercent=0, Tmin=300, UnlimitedTmin=373.26212
limitTemperature=limitT, Type=Upper, LimitedCells=3921, CellsPercent=0.32, Tmax=473, UnlimitedTmax=473
GAMG:  Solving for p_rgh, Initial residual = 0.01695196, Final residual = 6.4878234e-05, No Iterations 4
GAMG:  Solving for p_rgh, Initial residual = 0.0028292986, Final residual = 2.0149644e-05, No Iterations 2
GAMG:  Solving for p_rgh, Initial residual = 0.0022334015, Final residual = 1.3236837e-05, No Iterations 1
time step continuity errors : sum local = 0.042917609, global = 0.042646893, cumulative = 2.0529512
rho min/max : 0.71118281 0.90185896
DILUPBiCGStab:  Solving for nuTilda, Initial residual = 0.28597872, Final residual = 0.021369451, No Iterations 7
bounding nuTilda, min: -3.6759437e-05 max: 0.00052377531 average: 1.9546877e-05
ExecutionTime = 48.68 s  ClockTime = 48 s

Time = 37

DILUPBiCGStab:  Solving for h, Initial residual = 0.0065018753, Final residual = 0.00012315195, No Iterations 1
limitTemperature=limitT, Type=Lower, LimitedCells=0, CellsPercent=0, Tmin=300, UnlimitedTmin=373.24423
limitTemperature=limitT, Type=Upper, LimitedCells=3912, CellsPercent=0.32, Tmax=473, UnlimitedTmax=473
GAMG:  Solving for p_rgh, Initial residual = 0.016945706, Final residual = 6.6635565e-05, No Iterations 4
GAMG:  Solving for p_rgh, Initial residual = 0.0029080962, Final residual = 2.0395525e-05, No Iterations 2
GAMG:  Solving for p_rgh, Initial residual = 0.0022933873, Final residual = 1.3304172e-05, No Iterations 1
time step continuity errors : sum local = 0.042522833, global = 0.04226016, cumulative = 2.0952114
rho min/max : 0.71076149 0.90132468
DILUPBiCGStab:  Solving for nuTilda, Initial residual = 0.78792155, Final residual = 0.048729272, No Iterations 1
bounding nuTilda, min: -6.7204132e-05 max: 0.00052013942 average: 1.6741613e-05
ExecutionTime = 49.88 s  ClockTime = 50 s

Time = 38

DILUPBiCGStab:  Solving for h, Initial residual = 0.0064978466, Final residual = 0.00012468973, No Iterations 1
limitTemperature=limitT, Type=Lower, LimitedCells=0, CellsPercent=0, Tmin=300, UnlimitedTmin=373.228
limitTemperature=limitT, Type=Upper, LimitedCells=3900, CellsPercent=0.32, Tmax=473, UnlimitedTmax=473
GAMG:  Solving for p_rgh, Initial residual = 0.017124923, Final residual = 6.7645828e-05, No Iterations 4
GAMG:  Solving for p_rgh, Initial residual = 0.0028503184, Final residual = 2.0892481e-05, No Iterations 2
GAMG:  Solving for p_rgh, Initial residual = 0.002244505, Final residual = 1.3536217e-05, No Iterations 1
time step continuity errors : sum local = 0.042156386, global = 0.041886403, cumulative = 2.1370978
rho min/max : 0.71035291 0.90080656
DILUPBiCGStab:  Solving for nuTilda, Initial residual = 0.30948938, Final residual = 0.027692174, No Iterations 6
bounding nuTilda, min: -1.8926016e-05 max: 0.00048629202 average: 1.947233e-05
ExecutionTime = 51.17 s  ClockTime = 51 s

Time = 39

DILUPBiCGStab:  Solving for h, Initial residual = 0.0064602968, Final residual = 0.00012352173, No Iterations 1
limitTemperature=limitT, Type=Lower, LimitedCells=0, CellsPercent=0, Tmin=300, UnlimitedTmin=373.21328
limitTemperature=limitT, Type=Upper, LimitedCells=3885, CellsPercent=0.32, Tmax=473, UnlimitedTmax=473
GAMG:  Solving for p_rgh, Initial residual = 0.017094055, Final residual = 6.9243861e-05, No Iterations 4
GAMG:  Solving for p_rgh, Initial residual = 0.002939607, Final residual = 2.1108183e-05, No Iterations 2
GAMG:  Solving for p_rgh, Initial residual = 0.002312291, Final residual = 1.3631892e-05, No Iterations 1
time step continuity errors : sum local = 0.041785611, global = 0.041523751, cumulative = 2.1786215
rho min/max : 0.70993874 0.90028136
DILUPBiCGStab:  Solving for nuTilda, Initial residual = 0.82404314, Final residual = 0.062916054, No Iterations 1
bounding nuTilda, min: -4.5701655e-05 max: 0.0004843397 average: 1.6757181e-05
ExecutionTime = 52.39 s  ClockTime = 52 s

Time = 40

DILUPBiCGStab:  Solving for h, Initial residual = 0.0064453217, Final residual = 0.00012478757, No Iterations 1
limitTemperature=limitT, Type=Lower, LimitedCells=0, CellsPercent=0, Tmin=300, UnlimitedTmin=373.19988
limitTemperature=limitT, Type=Upper, LimitedCells=3876, CellsPercent=0.32, Tmax=473, UnlimitedTmax=473
GAMG:  Solving for p_rgh, Initial residual = 0.017250593, Final residual = 7.0388999e-05, No Iterations 4
GAMG:  Solving for p_rgh, Initial residual = 0.0028698388, Final residual = 2.1610804e-05, No Iterations 2
GAMG:  Solving for p_rgh, Initial residual = 0.0022549329, Final residual = 1.3909278e-05, No Iterations 1
time step continuity errors : sum local = 0.041443052, global = 0.041172451, cumulative = 2.219794
rho min/max : 0.70954108 0.89977709
DILUPBiCGStab:  Solving for nuTilda, Initial residual = 0.32164065, Final residual = 0.030361249, No Iterations 5
bounding nuTilda, min: -4.8979502e-05 max: 0.00045969834 average: 1.8377282e-05
ExecutionTime = 53.63 s  ClockTime = 53 s

Time = 41

DILUPBiCGStab:  Solving for h, Initial residual = 0.0064097453, Final residual = 0.00012432495, No Iterations 1
limitTemperature=limitT, Type=Lower, LimitedCells=0, CellsPercent=0, Tmin=300, UnlimitedTmin=373.18767
limitTemperature=limitT, Type=Upper, LimitedCells=3866, CellsPercent=0.32, Tmax=473, UnlimitedTmax=473
GAMG:  Solving for p_rgh, Initial residual = 0.017208703, Final residual = 7.2662401e-05, No Iterations 4
GAMG:  Solving for p_rgh, Initial residual = 0.0029353782, Final residual = 2.2267094e-05, No Iterations 2
GAMG:  Solving for p_rgh, Initial residual = 0.0023010409, Final residual = 1.4310498e-05, No Iterations 1
time step continuity errors : sum local = 0.041103101, global = 0.040832373, cumulative = 2.2606264
rho min/max : 0.70913471 0.89926177
DILUPBiCGStab:  Solving for nuTilda, Initial residual = 0.79579599, Final residual = 0.042530989, No Iterations 1
bounding nuTilda, min: -2.8175175e-05 max: 0.00045519807 average: 1.5978744e-05
ExecutionTime = 54.83 s  ClockTime = 55 s

Time = 42

DILUPBiCGStab:  Solving for h, Initial residual = 0.0064203175, Final residual = 0.00012646681, No Iterations 1
limitTemperature=limitT, Type=Lower, LimitedCells=0, CellsPercent=0, Tmin=300, UnlimitedTmin=373.17651
limitTemperature=limitT, Type=Upper, LimitedCells=3856, CellsPercent=0.32, Tmax=473, UnlimitedTmax=473
GAMG:  Solving for p_rgh, Initial residual = 0.017309596, Final residual = 7.4932484e-05, No Iterations 4
GAMG:  Solving for p_rgh, Initial residual = 0.002891139, Final residual = 2.315396e-05, No Iterations 2
GAMG:  Solving for p_rgh, Initial residual = 0.0022583774, Final residual = 1.4878192e-05, No Iterations 1
time step continuity errors : sum local = 0.040783622, global = 0.040499815, cumulative = 2.3011262
rho min/max : 0.70873127 0.89875017
DILUPBiCGStab:  Solving for nuTilda, Initial residual = 0.31922537, Final residual = 0.018746416, No Iterations 9
bounding nuTilda, min: -4.3574394e-05 max: 0.00042904346 average: 1.9740908e-05
ExecutionTime = 56.18 s  ClockTime = 56 s

Time = 43

DILUPBiCGStab:  Solving for h, Initial residual = 0.0064256658, Final residual = 0.00012569866, No Iterations 1
limitTemperature=limitT, Type=Lower, LimitedCells=0, CellsPercent=0, Tmin=300, UnlimitedTmin=373.1663
limitTemperature=limitT, Type=Upper, LimitedCells=3844, CellsPercent=0.32, Tmax=473, UnlimitedTmax=473
GAMG:  Solving for p_rgh, Initial residual = 0.017484579, Final residual = 7.6994987e-05, No Iterations 4
GAMG:  Solving for p_rgh, Initial residual = 0.0030045103, Final residual = 2.3562364e-05, No Iterations 2
GAMG:  Solving for p_rgh, Initial residual = 0.0023448033, Final residual = 1.5124566e-05, No Iterations 1
time step continuity errors : sum local = 0.040452726, global = 0.040177332, cumulative = 2.3413035
rho min/max : 0.70832604 0.8982363
DILUPBiCGStab:  Solving for nuTilda, Initial residual = 0.86147703, Final residual = 0.05378158, No Iterations 1
bounding nuTilda, min: -3.8260752e-05 max: 0.00042765201 average: 1.6422119e-05
ExecutionTime = 57.42 s  ClockTime = 57 s

Time = 44

DILUPBiCGStab:  Solving for h, Initial residual = 0.0063871784, Final residual = 0.00012707775, No Iterations 1
limitTemperature=limitT, Type=Lower, LimitedCells=0, CellsPercent=0, Tmin=300, UnlimitedTmin=373.15692
limitTemperature=limitT, Type=Upper, LimitedCells=3831, CellsPercent=0.32, Tmax=473, UnlimitedTmax=473
GAMG:  Solving for p_rgh, Initial residual = 0.017441407, Final residual = 7.5509507e-05, No Iterations 4
GAMG:  Solving for p_rgh, Initial residual = 0.0029048275, Final residual = 2.3209026e-05, No Iterations 2
GAMG:  Solving for p_rgh, Initial residual = 0.0022673553, Final residual = 1.4874026e-05, No Iterations 1
time step continuity errors : sum local = 0.040141067, global = 0.039863175, cumulative = 2.3811667
rho min/max : 0.70794519 0.89775336
DILUPBiCGStab:  Solving for nuTilda, Initial residual = 0.3588356, Final residual = 0.034376211, No Iterations 6
bounding nuTilda, min: -3.4930013e-05 max: 0.00043448078 average: 1.8977474e-05
ExecutionTime = 58.72 s  ClockTime = 58 s

Time = 45

DILUPBiCGStab:  Solving for h, Initial residual = 0.0064165159, Final residual = 0.00012661327, No Iterations 1
limitTemperature=limitT, Type=Lower, LimitedCells=0, CellsPercent=0, Tmin=300, UnlimitedTmin=373.14832
limitTemperature=limitT, Type=Upper, LimitedCells=3820, CellsPercent=0.32, Tmax=473, UnlimitedTmax=473
GAMG:  Solving for p_rgh, Initial residual = 0.017413562, Final residual = 7.7470306e-05, No Iterations 4
GAMG:  Solving for p_rgh, Initial residual = 0.0030014587, Final residual = 2.3833185e-05, No Iterations 2
GAMG:  Solving for p_rgh, Initial residual = 0.0023408198, Final residual = 1.5289036e-05, No Iterations 1
time step continuity errors : sum local = 0.039833175, global = 0.039558778, cumulative = 2.4207255
rho min/max : 0.70754905 0.89725101
DILUPBiCGStab:  Solving for nuTilda, Initial residual = 0.87279769, Final residual = 0.08231998, No Iterations 1
bounding nuTilda, min: -0.00026227344 max: 0.00043366462 average: 1.6515391e-05
ExecutionTime = 59.92 s  ClockTime = 60 s

Time = 46

DILUPBiCGStab:  Solving for h, Initial residual = 0.0063627195, Final residual = 0.00012746417, No Iterations 1
limitTemperature=limitT, Type=Lower, LimitedCells=0, CellsPercent=0, Tmin=300, UnlimitedTmin=373.14039
limitTemperature=limitT, Type=Upper, LimitedCells=3802, CellsPercent=0.31, Tmax=473, UnlimitedTmax=473
GAMG:  Solving for p_rgh, Initial residual = 0.017404075, Final residual = 7.7501533e-05, No Iterations 4
GAMG:  Solving for p_rgh, Initial residual = 0.0029258978, Final residual = 2.3987287e-05, No Iterations 2
GAMG:  Solving for p_rgh, Initial residual = 0.0022770347, Final residual = 1.5336296e-05, No Iterations 1
time step continuity errors : sum local = 0.039541225, global = 0.039260748, cumulative = 2.4599862
rho min/max : 0.70717114 0.89677178
DILUPBiCGStab:  Solving for nuTilda, Initial residual = 0.38795357, Final residual = 0.038278247, No Iterations 4
bounding nuTilda, min: -0.00012596995 max: 0.00043394284 average: 1.7391062e-05
ExecutionTime = 61.17 s  ClockTime = 61 s

Time = 47

DILUPBiCGStab:  Solving for h, Initial residual = 0.0063571614, Final residual = 0.00012825395, No Iterations 1
limitTemperature=limitT, Type=Lower, LimitedCells=0, CellsPercent=0, Tmin=300, UnlimitedTmin=373.13308
limitTemperature=limitT, Type=Upper, LimitedCells=3784, CellsPercent=0.31, Tmax=473, UnlimitedTmax=473
GAMG:  Solving for p_rgh, Initial residual = 0.017398636, Final residual = 8.0743583e-05, No Iterations 4
GAMG:  Solving for p_rgh, Initial residual = 0.002979111, Final residual = 2.5371623e-05, No Iterations 2
GAMG:  Solving for p_rgh, Initial residual = 0.002309781, Final residual = 1.6204162e-05, No Iterations 1
time step continuity errors : sum local = 0.039262039, global = 0.038972054, cumulative = 2.4989583
rho min/max : 0.70678503 0.89628216
DILUPBiCGStab:  Solving for nuTilda, Initial residual = 0.80622226, Final residual = 0.043269153, No Iterations 1
bounding nuTilda, min: -1.9840989e-05 max: 0.00043191765 average: 1.5413004e-05
ExecutionTime = 62.36 s  ClockTime = 62 s

Time = 48

DILUPBiCGStab:  Solving for h, Initial residual = 0.0063678084, Final residual = 0.00013015147, No Iterations 1
limitTemperature=limitT, Type=Lower, LimitedCells=0, CellsPercent=0, Tmin=300, UnlimitedTmin=373.12632
limitTemperature=limitT, Type=Upper, LimitedCells=3777, CellsPercent=0.31, Tmax=473, UnlimitedTmax=473
GAMG:  Solving for p_rgh, Initial residual = 0.017418296, Final residual = 8.3960636e-05, No Iterations 4
GAMG:  Solving for p_rgh, Initial residual = 0.0029433167, Final residual = 2.6336865e-05, No Iterations 2
GAMG:  Solving for p_rgh, Initial residual = 0.0022699575, Final residual = 1.6781839e-05, No Iterations 1
time step continuity errors : sum local = 0.038990851, global = 0.038688022, cumulative = 2.5376463
rho min/max : 0.70638938 0.89578043
DILUPBiCGStab:  Solving for nuTilda, Initial residual = 0.32324158, Final residual = 0.032131402, No Iterations 8
bounding nuTilda, min: -4.6231278e-05 max: 0.00043942011 average: 1.9262436e-05
ExecutionTime = 63.68 s  ClockTime = 63 s

Time = 49

DILUPBiCGStab:  Solving for h, Initial residual = 0.0063429199, Final residual = 0.00012766097, No Iterations 1
limitTemperature=limitT, Type=Lower, LimitedCells=0, CellsPercent=0, Tmin=300, UnlimitedTmin=373.12007
limitTemperature=limitT, Type=Upper, LimitedCells=3768, CellsPercent=0.31, Tmax=473, UnlimitedTmax=473
GAMG:  Solving for p_rgh, Initial residual = 0.01778621, Final residual = 8.5127613e-05, No Iterations 4
GAMG:  Solving for p_rgh, Initial residual = 0.0030483072, Final residual = 2.6886979e-05, No Iterations 2
GAMG:  Solving for p_rgh, Initial residual = 0.0023498924, Final residual = 1.7172831e-05, No Iterations 1
time step continuity errors : sum local = 0.038707445, global = 0.038409923, cumulative = 2.5760562
rho min/max : 0.70599613 0.89528176
DILUPBiCGStab:  Solving for nuTilda, Initial residual = 0.87308867, Final residual = 0.045610758, No Iterations 1
bounding nuTilda, min: -3.1546752e-05 max: 0.0004366542 average: 1.5807061e-05
ExecutionTime = 64.91 s  ClockTime = 65 s

Time = 50

DILUPBiCGStab:  Solving for h, Initial residual = 0.0063448683, Final residual = 0.000130261, No Iterations 1
limitTemperature=limitT, Type=Lower, LimitedCells=0, CellsPercent=0, Tmin=300, UnlimitedTmin=373.11428
limitTemperature=limitT, Type=Upper, LimitedCells=3756, CellsPercent=0.31, Tmax=473, UnlimitedTmax=473
GAMG:  Solving for p_rgh, Initial residual = 0.017386726, Final residual = 8.3438734e-05, No Iterations 4
GAMG:  Solving for p_rgh, Initial residual = 0.0029467224, Final residual = 2.5779956e-05, No Iterations 2
GAMG:  Solving for p_rgh, Initial residual = 0.002273924, Final residual = 1.6385592e-05, No Iterations 1
time step continuity errors : sum local = 0.038430524, global = 0.038139798, cumulative = 2.614196
rho min/max : 0.70562817 0.89481515
DILUPBiCGStab:  Solving for nuTilda, Initial residual = 0.38591603, Final residual = 0.031219727, No Iterations 7
bounding nuTilda, min: -2.8303584e-05 max: 0.00044356763 average: 1.9357976e-05
ExecutionTime = 66.21 s  ClockTime = 66 s

Time = 51

DILUPBiCGStab:  Solving for h, Initial residual = 0.006326024, Final residual = 0.00012798972, No Iterations 1
limitTemperature=limitT, Type=Lower, LimitedCells=0, CellsPercent=0, Tmin=300, UnlimitedTmin=373.10891
limitTemperature=limitT, Type=Upper, LimitedCells=3745, CellsPercent=0.31, Tmax=473, UnlimitedTmax=473
GAMG:  Solving for p_rgh, Initial residual = 0.017598111, Final residual = 8.3915177e-05, No Iterations 4
GAMG:  Solving for p_rgh, Initial residual = 0.0030579437, Final residual = 2.6492493e-05, No Iterations 2
GAMG:  Solving for p_rgh, Initial residual = 0.0023625488, Final residual = 1.6957057e-05, No Iterations 1
time step continuity errors : sum local = 0.038163529, global = 0.037875594, cumulative = 2.6520716
rho min/max : 0.70524535 0.8943297
DILUPBiCGStab:  Solving for nuTilda, Initial residual = 0.88108402, Final residual = 0.042157855, No Iterations 1
bounding nuTilda, min: -4.1999413e-05 max: 0.000439475 average: 1.5772165e-05
ExecutionTime = 67.43 s  ClockTime = 67 s

Time = 52

DILUPBiCGStab:  Solving for h, Initial residual = 0.0063231476, Final residual = 0.00013031213, No Iterations 1
limitTemperature=limitT, Type=Lower, LimitedCells=0, CellsPercent=0, Tmin=300, UnlimitedTmin=373.10392
limitTemperature=limitT, Type=Upper, LimitedCells=3738, CellsPercent=0.31, Tmax=473, UnlimitedTmax=473
GAMG:  Solving for p_rgh, Initial residual = 0.017399401, Final residual = 8.1817891e-05, No Iterations 4
GAMG:  Solving for p_rgh, Initial residual = 0.0029527645, Final residual = 2.5352878e-05, No Iterations 2
GAMG:  Solving for p_rgh, Initial residual = 0.0022789097, Final residual = 1.6137141e-05, No Iterations 1
time step continuity errors : sum local = 0.037899367, global = 0.037617525, cumulative = 2.6896891
rho min/max : 0.7048829 0.89387009
DILUPBiCGStab:  Solving for nuTilda, Initial residual = 0.39443359, Final residual = 0.037051047, No Iterations 7
bounding nuTilda, min: -4.8461651e-05 max: 0.00044732018 average: 1.967276e-05
ExecutionTime = 68.72 s  ClockTime = 68 s

Time = 53

DILUPBiCGStab:  Solving for h, Initial residual = 0.0062948477, Final residual = 0.00012790076, No Iterations 1
limitTemperature=limitT, Type=Lower, LimitedCells=0, CellsPercent=0, Tmin=300, UnlimitedTmin=373.09927
limitTemperature=limitT, Type=Upper, LimitedCells=3729, CellsPercent=0.31, Tmax=473, UnlimitedTmax=473
GAMG:  Solving for p_rgh, Initial residual = 0.01758098, Final residual = 8.4089826e-05, No Iterations 4
GAMG:  Solving for p_rgh, Initial residual = 0.0030765163, Final residual = 2.6777527e-05, No Iterations 2
GAMG:  Solving for p_rgh, Initial residual = 0.0023752674, Final residual = 1.7181707e-05, No Iterations 1
time step continuity errors : sum local = 0.037650764, global = 0.037364805, cumulative = 2.7270539
rho min/max : 0.7045071 0.89339353
DILUPBiCGStab:  Solving for nuTilda, Initial residual = 0.88213897, Final residual = 0.042375076, No Iterations 1
bounding nuTilda, min: -4.0100788e-05 max: 0.00044488347 average: 1.5850247e-05
ExecutionTime = 69.96 s  ClockTime = 70 s

Time = 54

DILUPBiCGStab:  Solving for h, Initial residual = 0.0062991847, Final residual = 0.00013014101, No Iterations 1
limitTemperature=limitT, Type=Lower, LimitedCells=0, CellsPercent=0, Tmin=300, UnlimitedTmin=373.09495
limitTemperature=limitT, Type=Upper, LimitedCells=3725, CellsPercent=0.31, Tmax=473, UnlimitedTmax=473
GAMG:  Solving for p_rgh, Initial residual = 0.017354353, Final residual = 8.1372801e-05, No Iterations 4
GAMG:  Solving for p_rgh, Initial residual = 0.0029649543, Final residual = 2.5279599e-05, No Iterations 2
GAMG:  Solving for p_rgh, Initial residual = 0.0022847298, Final residual = 1.6151373e-05, No Iterations 1
time step continuity errors : sum local = 0.037395424, global = 0.037117902, cumulative = 2.7641718
rho min/max : 0.70414953 0.8929401
DILUPBiCGStab:  Solving for nuTilda, Initial residual = 0.40281616, Final residual = 0.023813588, No Iterations 8
bounding nuTilda, min: -2.7501137e-05 max: 0.00045219615 average: 2.0201658e-05
ExecutionTime = 71.28 s  ClockTime = 71 s

Time = 55

DILUPBiCGStab:  Solving for h, Initial residual = 0.006286621, Final residual = 0.00012768868, No Iterations 1
limitTemperature=limitT, Type=Lower, LimitedCells=0, CellsPercent=0, Tmin=300, UnlimitedTmin=373.09091
limitTemperature=limitT, Type=Upper, LimitedCells=3712, CellsPercent=0.31, Tmax=473, UnlimitedTmax=473
GAMG:  Solving for p_rgh, Initial residual = 0.017563288, Final residual = 8.4190586e-05, No Iterations 4
GAMG:  Solving for p_rgh, Initial residual = 0.0031044223, Final residual = 2.7000444e-05, No Iterations 2
GAMG:  Solving for p_rgh, Initial residual = 0.0023928286, Final residual = 1.7427004e-05, No Iterations 1
time step continuity errors : sum local = 0.037159314, global = 0.0368754, cumulative = 2.8010472
rho min/max : 0.70378029 0.89247187
DILUPBiCGStab:  Solving for nuTilda, Initial residual = 0.8901967, Final residual = 0.087593731, No Iterations 1
bounding nuTilda, min: -5.1250391e-05 max: 0.00044944267 average: 1.7117309e-05
ExecutionTime = 72.48 s  ClockTime = 72 s

Time = 56

DILUPBiCGStab:  Solving for h, Initial residual = 0.0062546113, Final residual = 0.00012824846, No Iterations 1
limitTemperature=limitT, Type=Lower, LimitedCells=0, CellsPercent=0, Tmin=300, UnlimitedTmin=373.08714
limitTemperature=limitT, Type=Upper, LimitedCells=3703, CellsPercent=0.31, Tmax=473, UnlimitedTmax=473
GAMG:  Solving for p_rgh, Initial residual = 0.017267321, Final residual = 7.8901157e-05, No Iterations 4
GAMG:  Solving for p_rgh, Initial residual = 0.0029871835, Final residual = 2.4772362e-05, No Iterations 2
GAMG:  Solving for p_rgh, Initial residual = 0.0023014245, Final residual = 1.6010371e-05, No Iterations 1
time step continuity errors : sum local = 0.036908496, global = 0.036638961, cumulative = 2.8376862
rho min/max : 0.70343236 0.89203066
DILUPBiCGStab:  Solving for nuTilda, Initial residual = 0.42779738, Final residual = 0.034266434, No Iterations 7
bounding nuTilda, min: -2.0810693e-05 max: 0.00044841611 average: 1.7387905e-05
ExecutionTime = 73.8 s  ClockTime = 74 s

Time = 57

DILUPBiCGStab:  Solving for h, Initial residual = 0.0062742778, Final residual = 0.00012964551, No Iterations 1
limitTemperature=limitT, Type=Lower, LimitedCells=0, CellsPercent=0, Tmin=300, UnlimitedTmin=373.08362
limitTemperature=limitT, Type=Upper, LimitedCells=3692, CellsPercent=0.31, Tmax=473, UnlimitedTmax=473
GAMG:  Solving for p_rgh, Initial residual = 0.017351338, Final residual = 8.1808614e-05, No Iterations 4
GAMG:  Solving for p_rgh, Initial residual = 0.0030455497, Final residual = 2.650151e-05, No Iterations 2
GAMG:  Solving for p_rgh, Initial residual = 0.0023400274, Final residual = 1.7275397e-05, No Iterations 1
time step continuity errors : sum local = 0.036691772, global = 0.036407565, cumulative = 2.8740938
rho min/max : 0.7030779 0.89158117
DILUPBiCGStab:  Solving for nuTilda, Initial residual = 0.85070223, Final residual = 0.075765413, No Iterations 1
bounding nuTilda, min: -2.3210501e-05 max: 0.0004460691 average: 1.5821568e-05
ExecutionTime = 74.99 s  ClockTime = 75 s

Time = 58

DILUPBiCGStab:  Solving for h, Initial residual = 0.0062683751, Final residual = 0.00013017872, No Iterations 1
limitTemperature=limitT, Type=Lower, LimitedCells=0, CellsPercent=0, Tmin=300, UnlimitedTmin=373.08033
limitTemperature=limitT, Type=Upper, LimitedCells=3687, CellsPercent=0.3, Tmax=473, UnlimitedTmax=473
GAMG:  Solving for p_rgh, Initial residual = 0.017286837, Final residual = 8.2058395e-05, No Iterations 4
GAMG:  Solving for p_rgh, Initial residual = 0.0029999891, Final residual = 2.6290449e-05, No Iterations 2
GAMG:  Solving for p_rgh, Initial residual = 0.0022932721, Final residual = 1.7195566e-05, No Iterations 1
time step continuity errors : sum local = 0.036466786, global = 0.036180012, cumulative = 2.9102738
rho min/max : 0.70271303 0.89111849
DILUPBiCGStab:  Solving for nuTilda, Initial residual = 0.36948376, Final residual = 0.033538828, No Iterations 16
bounding nuTilda, min: -4.1305716e-05 max: 0.00044219451 average: 1.8199576e-05
ExecutionTime = 76.46 s  ClockTime = 76 s

Time = 59

DILUPBiCGStab:  Solving for h, Initial residual = 0.0062430093, Final residual = 0.00012902924, No Iterations 1
limitTemperature=limitT, Type=Lower, LimitedCells=0, CellsPercent=0, Tmin=300, UnlimitedTmin=373.07724
limitTemperature=limitT, Type=Upper, LimitedCells=3676, CellsPercent=0.3, Tmax=473, UnlimitedTmax=473
GAMG:  Solving for p_rgh, Initial residual = 0.017753718, Final residual = 8.5320541e-05, No Iterations 4
GAMG:  Solving for p_rgh, Initial residual = 0.0030830851, Final residual = 2.8181988e-05, No Iterations 2
GAMG:  Solving for p_rgh, Initial residual = 0.0023507425, Final residual = 1.8498513e-05, No Iterations 1
time step continuity errors : sum local = 0.036254396, global = 0.035955482, cumulative = 2.9462292
rho min/max : 0.70235344 0.89066249
DILUPBiCGStab:  Solving for nuTilda, Initial residual = 0.85183569, Final residual = 0.07915212, No Iterations 1
bounding nuTilda, min: -4.3772454e-05 max: 0.00044013771 average: 1.6249065e-05
ExecutionTime = 77.63 s  ClockTime = 77 s

Time = 60

DILUPBiCGStab:  Solving for h, Initial residual = 0.0062419912, Final residual = 0.00012982875, No Iterations 1
limitTemperature=limitT, Type=Lower, LimitedCells=0, CellsPercent=0, Tmin=300, UnlimitedTmin=373.07434
limitTemperature=limitT, Type=Upper, LimitedCells=3671, CellsPercent=0.3, Tmax=473, UnlimitedTmax=473
GAMG:  Solving for p_rgh, Initial residual = 0.017341699, Final residual = 8.3705042e-05, No Iterations 4
GAMG:  Solving for p_rgh, Initial residual = 0.0030110655, Final residual = 2.7140191e-05, No Iterations 2
GAMG:  Solving for p_rgh, Initial residual = 0.0022931, Final residual = 1.7860114e-05, No Iterations 1
time step continuity errors : sum local = 0.036029842, global = 0.035736258, cumulative = 2.9819655
rho min/max : 0.70199655 0.89020992
DILUPBiCGStab:  Solving for nuTilda, Initial residual = 0.38176608, Final residual = 0.036359074, No Iterations 7
bounding nuTilda, min: -2.0776456e-05 max: 0.00043356516 average: 1.7879704e-05
ExecutionTime = 78.99 s  ClockTime = 79 s

Time = 61

DILUPBiCGStab:  Solving for h, Initial residual = 0.0062169215, Final residual = 0.00012894321, No Iterations 1
limitTemperature=limitT, Type=Lower, LimitedCells=0, CellsPercent=0, Tmin=300, UnlimitedTmin=373.07162
limitTemperature=limitT, Type=Upper, LimitedCells=3667, CellsPercent=0.3, Tmax=473, UnlimitedTmax=473
GAMG:  Solving for p_rgh, Initial residual = 0.017591978, Final residual = 8.6898633e-05, No Iterations 4
GAMG:  Solving for p_rgh, Initial residual = 0.0030780532, Final residual = 2.8966191e-05, No Iterations 2
GAMG:  Solving for p_rgh, Initial residual = 0.0023417028, Final residual = 1.9083611e-05, No Iterations 1
time step continuity errors : sum local = 0.035825441, global = 0.03552043, cumulative = 3.0174859
rho min/max : 0.70164351 0.88976223
DILUPBiCGStab:  Solving for nuTilda, Initial residual = 0.83277106, Final residual = 0.081658708, No Iterations 1
bounding nuTilda, min: -2.4616444e-05 max: 0.00043134626 average: 1.6220582e-05
ExecutionTime = 80.24 s  ClockTime = 80 s

Time = 62

DILUPBiCGStab:  Solving for h, Initial residual = 0.0062217406, Final residual = 0.00012974721, No Iterations 1
limitTemperature=limitT, Type=Lower, LimitedCells=0, CellsPercent=0, Tmin=300, UnlimitedTmin=373.06906
limitTemperature=limitT, Type=Upper, LimitedCells=3664, CellsPercent=0.3, Tmax=473, UnlimitedTmax=473
GAMG:  Solving for p_rgh, Initial residual = 0.017267276, Final residual = 8.5005205e-05, No Iterations 4
GAMG:  Solving for p_rgh, Initial residual = 0.0030142973, Final residual = 2.7973157e-05, No Iterations 2
GAMG:  Solving for p_rgh, Initial residual = 0.0022899106, Final residual = 1.8520089e-05, No Iterations 1
time step continuity errors : sum local = 0.035609946, global = 0.035309229, cumulative = 3.0527952
rho min/max : 0.70129074 0.88931489
DILUPBiCGStab:  Solving for nuTilda, Initial residual = 0.38635711, Final residual = 0.025911374, No Iterations 7
bounding nuTilda, min: -0.00010192015 max: 0.00042624271 average: 1.8194393e-05
ExecutionTime = 81.53 s  ClockTime = 81 s

Time = 63

DILUPBiCGStab:  Solving for h, Initial residual = 0.0061954694, Final residual = 0.00012853289, No Iterations 1
limitTemperature=limitT, Type=Lower, LimitedCells=0, CellsPercent=0, Tmin=300, UnlimitedTmin=373.06665
limitTemperature=limitT, Type=Upper, LimitedCells=3658, CellsPercent=0.3, Tmax=473, UnlimitedTmax=473
GAMG:  Solving for p_rgh, Initial residual = 0.017592017, Final residual = 8.7979706e-05, No Iterations 4
GAMG:  Solving for p_rgh, Initial residual = 0.0030915104, Final residual = 2.991105e-05, No Iterations 2
GAMG:  Solving for p_rgh, Initial residual = 0.0023449518, Final residual = 1.9815265e-05, No Iterations 1
time step continuity errors : sum local = 0.035413554, global = 0.035101233, cumulative = 3.0878964
rho min/max : 0.70094213 0.88887282
DILUPBiCGStab:  Solving for nuTilda, Initial residual = 0.83534427, Final residual = 0.082067376, No Iterations 1
bounding nuTilda, min: -3.6007052e-05 max: 0.00042551931 average: 1.6453231e-05
ExecutionTime = 82.75 s  ClockTime = 83 s

Time = 64

DILUPBiCGStab:  Solving for h, Initial residual = 0.0061963931, Final residual = 0.00012924523, No Iterations 1
limitTemperature=limitT, Type=Lower, LimitedCells=0, CellsPercent=0, Tmin=300, UnlimitedTmin=373.06438
limitTemperature=limitT, Type=Upper, LimitedCells=3653, CellsPercent=0.3, Tmax=473, UnlimitedTmax=473
GAMG:  Solving for p_rgh, Initial residual = 0.017215934, Final residual = 8.5058771e-05, No Iterations 4
GAMG:  Solving for p_rgh, Initial residual = 0.0030208401, Final residual = 2.8475988e-05, No Iterations 2
GAMG:  Solving for p_rgh, Initial residual = 0.0022883536, Final residual = 1.8948434e-05, No Iterations 1
time step continuity errors : sum local = 0.03520193, global = 0.034897781, cumulative = 3.1227942
rho min/max : 0.70059492 0.88843252
DILUPBiCGStab:  Solving for nuTilda, Initial residual = 0.42934958, Final residual = 0.039823568, No Iterations 8
bounding nuTilda, min: -5.1028439e-05 max: 0.00042368505 average: 1.8151867e-05
ExecutionTime = 84.12 s  ClockTime = 84 s

Time = 65

DILUPBiCGStab:  Solving for h, Initial residual = 0.0061846415, Final residual = 0.00012856525, No Iterations 1
limitTemperature=limitT, Type=Lower, LimitedCells=0, CellsPercent=0, Tmin=300, UnlimitedTmin=373.06225
limitTemperature=limitT, Type=Upper, LimitedCells=3643, CellsPercent=0.3, Tmax=473, UnlimitedTmax=473
GAMG:  Solving for p_rgh, Initial residual = 0.017486866, Final residual = 8.7451806e-05, No Iterations 4
GAMG:  Solving for p_rgh, Initial residual = 0.0030970801, Final residual = 3.0445338e-05, No Iterations 2
GAMG:  Solving for p_rgh, Initial residual = 0.0023427047, Final residual = 2.0233777e-05, No Iterations 1
time step continuity errors : sum local = 0.035012924, global = 0.034697271, cumulative = 3.1574914
rho min/max : 0.70025163 0.8879972
DILUPBiCGStab:  Solving for nuTilda, Initial residual = 0.83738253, Final residual = 0.04641198, No Iterations 1
bounding nuTilda, min: -0.00010930879 max: 0.00042513487 average: 1.6109928e-05
ExecutionTime = 85.35 s  ClockTime = 85 s

Time = 66

DILUPBiCGStab:  Solving for h, Initial residual = 0.0061826357, Final residual = 0.0001292906, No Iterations 1
limitTemperature=limitT, Type=Lower, LimitedCells=0, CellsPercent=0, Tmin=300, UnlimitedTmin=373.06023
limitTemperature=limitT, Type=Upper, LimitedCells=3634, CellsPercent=0.3, Tmax=473, UnlimitedTmax=473
GAMG:  Solving for p_rgh, Initial residual = 0.017270097, Final residual = 8.5202025e-05, No Iterations 4
GAMG:  Solving for p_rgh, Initial residual = 0.0030196676, Final residual = 2.8851208e-05, No Iterations 2
GAMG:  Solving for p_rgh, Initial residual = 0.0022794059, Final residual = 1.9238482e-05, No Iterations 1
time step continuity errors : sum local = 0.03480762, global = 0.034501151, cumulative = 3.1919926
rho min/max : 0.69990721 0.88756044
DILUPBiCGStab:  Solving for nuTilda, Initial residual = 0.37461144, Final residual = 0.027572245, No Iterations 15
bounding nuTilda, min: -1.3343731e-05 max: 0.0004204459 average: 2.0632569e-05
ExecutionTime = 86.79 s  ClockTime = 87 s

Time = 67

DILUPBiCGStab:  Solving for h, Initial residual = 0.0061794071, Final residual = 0.00012696482, No Iterations 1
limitTemperature=limitT, Type=Lower, LimitedCells=0, CellsPercent=0, Tmin=300, UnlimitedTmin=373.05832
limitTemperature=limitT, Type=Upper, LimitedCells=3625, CellsPercent=0.3, Tmax=473, UnlimitedTmax=473
GAMG:  Solving for p_rgh, Initial residual = 0.017590557, Final residual = 8.8337242e-05, No Iterations 4
GAMG:  Solving for p_rgh, Initial residual = 0.0031581321, Final residual = 3.1344254e-05, No Iterations 2
GAMG:  Solving for p_rgh, Initial residual = 0.0023880991, Final residual = 2.080993e-05, No Iterations 1
time step continuity errors : sum local = 0.034621851, global = 0.034307171, cumulative = 3.2262998
rho min/max : 0.69956647 0.88712835
DILUPBiCGStab:  Solving for nuTilda, Initial residual = 0.88679318, Final residual = 0.087912592, No Iterations 1
bounding nuTilda, min: -5.7613516e-05 max: 0.00042167749 average: 1.7851574e-05
ExecutionTime = 87.97 s  ClockTime = 88 s

Time = 68

DILUPBiCGStab:  Solving for h, Initial residual = 0.006123422, Final residual = 0.00012649797, No Iterations 1
limitTemperature=limitT, Type=Lower, LimitedCells=0, CellsPercent=0, Tmin=300, UnlimitedTmin=373.05651
limitTemperature=limitT, Type=Upper, LimitedCells=3611, CellsPercent=0.3, Tmax=473, UnlimitedTmax=473
GAMG:  Solving for p_rgh, Initial residual = 0.017250351, Final residual = 8.0212341e-05, No Iterations 4
GAMG:  Solving for p_rgh, Initial residual = 0.0030191121, Final residual = 2.7680965e-05, No Iterations 2
GAMG:  Solving for p_rgh, Initial residual = 0.0022908718, Final residual = 1.8496217e-05, No Iterations 1
time step continuity errors : sum local = 0.03440815, global = 0.034118315, cumulative = 3.2604181
rho min/max : 0.69924219 0.88671713
DILUPBiCGStab:  Solving for nuTilda, Initial residual = 0.46832358, Final residual = 0.027124656, No Iterations 5
bounding nuTilda, min: -2.1951169e-05 max: 0.00041597315 average: 1.8147823e-05
ExecutionTime = 89.24 s  ClockTime = 89 s

Time = 69

DILUPBiCGStab:  Solving for h, Initial residual = 0.0061390664, Final residual = 0.00012737772, No Iterations 1
limitTemperature=limitT, Type=Lower, LimitedCells=0, CellsPercent=0, Tmin=300, UnlimitedTmin=373.0548
limitTemperature=limitT, Type=Upper, LimitedCells=3603, CellsPercent=0.3, Tmax=473, UnlimitedTmax=473
GAMG:  Solving for p_rgh, Initial residual = 0.016950029, Final residual = 8.3648308e-05, No Iterations 4
GAMG:  Solving for p_rgh, Initial residual = 0.003083961, Final residual = 3.0029008e-05, No Iterations 2
GAMG:  Solving for p_rgh, Initial residual = 0.0023388296, Final residual = 1.9981215e-05, No Iterations 1
time step continuity errors : sum local = 0.034237979, global = 0.033932985, cumulative = 3.2943511
rho min/max : 0.69891588 0.88630334
DILUPBiCGStab:  Solving for nuTilda, Initial residual = 0.84803069, Final residual = 0.079885791, No Iterations 1
bounding nuTilda, min: -5.2046332e-05 max: 0.00043165856 average: 1.666172e-05
ExecutionTime = 90.41 s  ClockTime = 90 s

Time = 70

DILUPBiCGStab:  Solving for h, Initial residual = 0.0061252782, Final residual = 0.0001274975, No Iterations 1
limitTemperature=limitT, Type=Lower, LimitedCells=0, CellsPercent=0, Tmin=300, UnlimitedTmin=373.05318
limitTemperature=limitT, Type=Upper, LimitedCells=3595, CellsPercent=0.3, Tmax=473, UnlimitedTmax=473
GAMG:  Solving for p_rgh, Initial residual = 0.016959128, Final residual = 8.0638364e-05, No Iterations 4
GAMG:  Solving for p_rgh, Initial residual = 0.0030225183, Final residual = 2.8461732e-05, No Iterations 2
GAMG:  Solving for p_rgh, Initial residual = 0.002280719, Final residual = 1.9008446e-05, No Iterations 1
time step continuity errors : sum local = 0.03404653, global = 0.033750323, cumulative = 3.3281014
rho min/max : 0.69858131 0.88587907
DILUPBiCGStab:  Solving for nuTilda, Initial residual = 0.53172979, Final residual = 0.041453678, No Iterations 8
bounding nuTilda, min: -9.7744619e-05 max: 0.00041458556 average: 1.8688642e-05
ExecutionTime = 91.71 s  ClockTime = 91 s

Time = 71

DILUPBiCGStab:  Solving for h, Initial residual = 0.0060987781, Final residual = 0.00012629653, No Iterations 1
limitTemperature=limitT, Type=Lower, LimitedCells=0, CellsPercent=0, Tmin=300, UnlimitedTmin=373.05164
limitTemperature=limitT, Type=Upper, LimitedCells=3589, CellsPercent=0.3, Tmax=473, UnlimitedTmax=473
GAMG:  Solving for p_rgh, Initial residual = 0.01719307, Final residual = 8.4695419e-05, No Iterations 4
GAMG:  Solving for p_rgh, Initial residual = 0.003108145, Final residual = 3.1073125e-05, No Iterations 2
GAMG:  Solving for p_rgh, Initial residual = 0.0023379644, Final residual = 2.0659096e-05, No Iterations 1
time step continuity errors : sum local = 0.033882105, global = 0.033569681, cumulative = 3.3616711
rho min/max : 0.69825167 0.88546105
DILUPBiCGStab:  Solving for nuTilda, Initial residual = 0.83386255, Final residual = 0.053189097, No Iterations 1
bounding nuTilda, min: -5.4041576e-05 max: 0.00041136893 average: 1.6599666e-05
ExecutionTime = 92.91 s  ClockTime = 93 s

Time = 72

DILUPBiCGStab:  Solving for h, Initial residual = 0.0060946453, Final residual = 0.00012736851, No Iterations 1
limitTemperature=limitT, Type=Lower, LimitedCells=0, CellsPercent=0, Tmin=300, UnlimitedTmin=373.05018
limitTemperature=limitT, Type=Upper, LimitedCells=3579, CellsPercent=0.3, Tmax=473, UnlimitedTmax=473
GAMG:  Solving for p_rgh, Initial residual = 0.016877302, Final residual = 7.9970596e-05, No Iterations 4
GAMG:  Solving for p_rgh, Initial residual = 0.0030243071, Final residual = 2.8581167e-05, No Iterations 2
GAMG:  Solving for p_rgh, Initial residual = 0.002269299, Final residual = 1.906645e-05, No Iterations 1
time step continuity errors : sum local = 0.033689, global = 0.033393255, cumulative = 3.3950643
rho min/max : 0.6979208 0.88504148
DILUPBiCGStab:  Solving for nuTilda, Initial residual = 0.39939446, Final residual = 0.035743369, No Iterations 12
bounding nuTilda, min: -3.1282711e-05 max: 0.00040454173 average: 2.0777406e-05
ExecutionTime = 94.29 s  ClockTime = 94 s

Time = 73

DILUPBiCGStab:  Solving for h, Initial residual = 0.0060944424, Final residual = 0.00012503891, No Iterations 1
limitTemperature=limitT, Type=Lower, LimitedCells=0, CellsPercent=0, Tmin=300, UnlimitedTmin=373.04879
limitTemperature=limitT, Type=Upper, LimitedCells=3568, CellsPercent=0.29, Tmax=473, UnlimitedTmax=473
GAMG:  Solving for p_rgh, Initial residual = 0.017137663, Final residual = 8.3116979e-05, No Iterations 4
GAMG:  Solving for p_rgh, Initial residual = 0.0031583666, Final residual = 3.1036223e-05, No Iterations 2
GAMG:  Solving for p_rgh, Initial residual = 0.0023766174, Final residual = 2.0619316e-05, No Iterations 1
time step continuity errors : sum local = 0.033522035, global = 0.03321834, cumulative = 3.4282827
rho min/max : 0.69759377 0.88462677
DILUPBiCGStab:  Solving for nuTilda, Initial residual = 0.88577362, Final residual = 0.084991908, No Iterations 1
bounding nuTilda, min: -0.00039020836 max: 0.00040371862 average: 1.8087458e-05
ExecutionTime = 95.47 s  ClockTime = 95 s

Time = 74

DILUPBiCGStab:  Solving for h, Initial residual = 0.0060266279, Final residual = 0.0001248994, No Iterations 1
limitTemperature=limitT, Type=Lower, LimitedCells=0, CellsPercent=0, Tmin=300, UnlimitedTmin=373.04747
limitTemperature=limitT, Type=Upper, LimitedCells=3562, CellsPercent=0.29, Tmax=473, UnlimitedTmax=473
GAMG:  Solving for p_rgh, Initial residual = 0.016910114, Final residual = 7.3954643e-05, No Iterations 4
GAMG:  Solving for p_rgh, Initial residual = 0.0030135297, Final residual = 2.6681196e-05, No Iterations 2
GAMG:  Solving for p_rgh, Initial residual = 0.0022777331, Final residual = 1.782333e-05, No Iterations 1
time step continuity errors : sum local = 0.033320139, global = 0.033047712, cumulative = 3.4613304
rho min/max : 0.69727956 0.88422833
DILUPBiCGStab:  Solving for nuTilda, Initial residual = 0.50198941, Final residual = 0.030847968, No Iterations 5
bounding nuTilda, min: -5.154037e-05 max: 0.00039921759 average: 1.8665173e-05
ExecutionTime = 96.72 s  ClockTime = 96 s

Time = 75

DILUPBiCGStab:  Solving for h, Initial residual = 0.0060073404, Final residual = 0.00012410405, No Iterations 1
limitTemperature=limitT, Type=Lower, LimitedCells=0, CellsPercent=0, Tmin=300, UnlimitedTmin=373.04621
limitTemperature=limitT, Type=Upper, LimitedCells=3557, CellsPercent=0.29, Tmax=473, UnlimitedTmax=473
GAMG:  Solving for p_rgh, Initial residual = 0.016458728, Final residual = 7.6883599e-05, No Iterations 4
GAMG:  Solving for p_rgh, Initial residual = 0.0030692976, Final residual = 2.8616127e-05, No Iterations 2
GAMG:  Solving for p_rgh, Initial residual = 0.0023227363, Final residual = 1.9139337e-05, No Iterations 1
time step continuity errors : sum local = 0.033165274, global = 0.032880024, cumulative = 3.4942104
rho min/max : 0.69696533 0.88382985
DILUPBiCGStab:  Solving for nuTilda, Initial residual = 0.82341883, Final residual = 0.058601242, No Iterations 1
bounding nuTilda, min: -0.00015101897 max: 0.00039809325 average: 1.700078e-05
ExecutionTime = 97.92 s  ClockTime = 98 s

Time = 76

DILUPBiCGStab:  Solving for h, Initial residual = 0.0060135475, Final residual = 0.00012557588, No Iterations 1
limitTemperature=limitT, Type=Lower, LimitedCells=0, CellsPercent=0, Tmin=300, UnlimitedTmin=373.045
limitTemperature=limitT, Type=Upper, LimitedCells=3546, CellsPercent=0.29, Tmax=473, UnlimitedTmax=473
GAMG:  Solving for p_rgh, Initial residual = 0.016403316, Final residual = 7.4392837e-05, No Iterations 4
GAMG:  Solving for p_rgh, Initial residual = 0.0030019843, Final residual = 2.7125305e-05, No Iterations 2
GAMG:  Solving for p_rgh, Initial residual = 0.0022617879, Final residual = 1.8159778e-05, No Iterations 1
time step continuity errors : sum local = 0.032991807, global = 0.032715049, cumulative = 3.5269255
rho min/max : 0.69664503 0.88342367
DILUPBiCGStab:  Solving for nuTilda, Initial residual = 0.4220118, Final residual = 0.039619378, No Iterations 18
[...]
GAMG:  Solving for p_rgh, Initial residual = 0.00014399156, Final residual = 1.1844934e-06, No Iterations 5
GAMG:  Solving for p_rgh, Initial residual = 9.9494158e-05, Final residual = 8.4050412e-07, No Iterations 2
time step continuity errors : sum local = 0.00050426562, global = 0.00049987827, cumulative = 13.056413
rho min/max : 0.62499613 0.79256561
DILUPBiCGStab:  Solving for nuTilda, Initial residual = 0.47886531, Final residual = 0.031329485, No Iterations 12
ExecutionTime = 2012.15 s  ClockTime = 2012 s

Time = 1569

DILUPBiCGStab:  Solving for h, Initial residual = 0.00035689885, Final residual = 6.8886524e-06, No Iterations 1
limitTemperature=limitT, Type=Lower, LimitedCells=0, CellsPercent=0, Tmin=300, UnlimitedTmin=373.00003
limitTemperature=limitT, Type=Upper, LimitedCells=0, CellsPercent=0, Tmax=473, UnlimitedTmax=459.52922
GAMG:  Solving for p_rgh, Initial residual = 0.0011543939, Final residual = 6.033756e-06, No Iterations 4
GAMG:  Solving for p_rgh, Initial residual = 0.00014086482, Final residual = 1.3775371e-06, No Iterations 4
GAMG:  Solving for p_rgh, Initial residual = 0.00010294908, Final residual = 9.0555172e-07, No Iterations 2
time step continuity errors : sum local = 0.00050437528, global = 0.00049963305, cumulative = 13.056912
rho min/max : 0.62499243 0.79256091
DILUPBiCGStab:  Solving for nuTilda, Initial residual = 0.95094947, Final residual = 0.042953096, No Iterations 1
bounding nuTilda, min: -6.3447436e-06 max: 0.00013612868 average: 8.685298e-06
ExecutionTime = 2013.4 s  ClockTime = 2013 s

Time = 1570

DILUPBiCGStab:  Solving for h, Initial residual = 0.00023855952, Final residual = 4.7592074e-06, No Iterations 1
limitTemperature=limitT, Type=Lower, LimitedCells=0, CellsPercent=0, Tmin=300, UnlimitedTmin=373.00003
limitTemperature=limitT, Type=Upper, LimitedCells=0, CellsPercent=0, Tmax=473, UnlimitedTmax=459.52852
GAMG:  Solving for p_rgh, Initial residual = 0.002248212, Final residual = 2.2019612e-05, No Iterations 3
GAMG:  Solving for p_rgh, Initial residual = 0.00015236028, Final residual = 1.0150467e-06, No Iterations 5
GAMG:  Solving for p_rgh, Initial residual = 0.00010120719, Final residual = 6.810484e-07, No Iterations 2
time step continuity errors : sum local = 0.00050298663, global = 0.00049938834, cumulative = 13.057412
rho min/max : 0.62498947 0.79255716
DILUPBiCGStab:  Solving for nuTilda, Initial residual = 0.51469699, Final residual = 0.024762379, No Iterations 10
bounding nuTilda, min: -8.3555647e-06 max: 0.00014289324 average: 1.1416643e-05
ExecutionTime = 2014.8 s  ClockTime = 2015 s

Time = 1571

DILUPBiCGStab:  Solving for h, Initial residual = 0.00041797821, Final residual = 7.863442e-06, No Iterations 1
limitTemperature=limitT, Type=Lower, LimitedCells=0, CellsPercent=0, Tmin=300, UnlimitedTmin=373.00003
limitTemperature=limitT, Type=Upper, LimitedCells=0, CellsPercent=0, Tmax=473, UnlimitedTmax=459.52781
GAMG:  Solving for p_rgh, Initial residual = 0.001116707, Final residual = 6.890593e-06, No Iterations 4
GAMG:  Solving for p_rgh, Initial residual = 0.00014542139, Final residual = 1.2581674e-06, No Iterations 5
GAMG:  Solving for p_rgh, Initial residual = 0.0001048975, Final residual = 9.8766718e-07, No Iterations 2
time step continuity errors : sum local = 0.00050405059, global = 0.00049914491, cumulative = 13.057911
rho min/max : 0.62498571 0.79255239
DILUPBiCGStab:  Solving for nuTilda, Initial residual = 0.95820828, Final residual = 0.091431934, No Iterations 1
bounding nuTilda, min: -5.1928166e-06 max: 0.00014259975 average: 9.464201e-06
ExecutionTime = 2016.06 s  ClockTime = 2016 s

Time = 1572

DILUPBiCGStab:  Solving for h, Initial residual = 0.0002451032, Final residual = 4.8356487e-06, No Iterations 1
limitTemperature=limitT, Type=Lower, LimitedCells=0, CellsPercent=0, Tmin=300, UnlimitedTmin=373.00003
limitTemperature=limitT, Type=Upper, LimitedCells=0, CellsPercent=0, Tmax=473, UnlimitedTmax=459.5271
GAMG:  Solving for p_rgh, Initial residual = 0.0026363924, Final residual = 2.4320308e-05, No Iterations 3
GAMG:  Solving for p_rgh, Initial residual = 0.00015677498, Final residual = 9.5127239e-07, No Iterations 5
GAMG:  Solving for p_rgh, Initial residual = 0.00010067067, Final residual = 9.1027866e-07, No Iterations 1
time step continuity errors : sum local = 0.00050370109, global = 0.00049890177, cumulative = 13.05841
rho min/max : 0.62498273 0.79254861
DILUPBiCGStab:  Solving for nuTilda, Initial residual = 0.60924133, Final residual = 0.059382425, No Iterations 3
bounding nuTilda, min: -3.1897772e-06 max: 0.00012391672 average: 8.8781168e-06
ExecutionTime = 2017.31 s  ClockTime = 2017 s

Time = 1573

DILUPBiCGStab:  Solving for h, Initial residual = 0.00022109507, Final residual = 4.4357815e-06, No Iterations 1
limitTemperature=limitT, Type=Lower, LimitedCells=0, CellsPercent=0, Tmin=300, UnlimitedTmin=373.00003
limitTemperature=limitT, Type=Upper, LimitedCells=0, CellsPercent=0, Tmax=473, UnlimitedTmax=459.5264
GAMG:  Solving for p_rgh, Initial residual = 0.001399219, Final residual = 8.3810075e-06, No Iterations 4
GAMG:  Solving for p_rgh, Initial residual = 0.00015376114, Final residual = 1.2877664e-06, No Iterations 4
GAMG:  Solving for p_rgh, Initial residual = 9.9914186e-05, Final residual = 9.3852385e-07, No Iterations 2
time step continuity errors : sum local = 0.00050374306, global = 0.00049866017, cumulative = 13.058908
rho min/max : 0.62497908 0.79254398
DILUPBiCGStab:  Solving for nuTilda, Initial residual = 0.85359818, Final residual = 0.081383686, No Iterations 1
bounding nuTilda, min: -3.8030208e-06 max: 0.00012114631 average: 8.319038e-06
ExecutionTime = 2018.54 s  ClockTime = 2019 s

Time = 1574

DILUPBiCGStab:  Solving for h, Initial residual = 0.00023421107, Final residual = 4.6841949e-06, No Iterations 1
limitTemperature=limitT, Type=Lower, LimitedCells=0, CellsPercent=0, Tmin=300, UnlimitedTmin=373.00003
limitTemperature=limitT, Type=Upper, LimitedCells=0, CellsPercent=0, Tmax=473, UnlimitedTmax=459.52568
GAMG:  Solving for p_rgh, Initial residual = 0.0017064306, Final residual = 8.3573302e-06, No Iterations 4
GAMG:  Solving for p_rgh, Initial residual = 0.00014137174, Final residual = 1.3138208e-06, No Iterations 5
GAMG:  Solving for p_rgh, Initial residual = 9.9359273e-05, Final residual = 4.6416838e-07, No Iterations 3
time step continuity errors : sum local = 0.00050089305, global = 0.00049841719, cumulative = 13.059407
rho min/max : 0.62497508 0.79253892
DILUPBiCGStab:  Solving for nuTilda, Initial residual = 0.41592423, Final residual = 0.041272835, No Iterations 10
bounding nuTilda, min: -1.076621e-06 max: 0.00011698224 average: 9.9611463e-06
ExecutionTime = 2019.98 s  ClockTime = 2020 s

Time = 1575

DILUPBiCGStab:  Solving for h, Initial residual = 0.00017780842, Final residual = 3.5164919e-06, No Iterations 1
limitTemperature=limitT, Type=Lower, LimitedCells=0, CellsPercent=0, Tmin=300, UnlimitedTmin=373.00003
limitTemperature=limitT, Type=Upper, LimitedCells=0, CellsPercent=0, Tmax=473, UnlimitedTmax=459.52497
GAMG:  Solving for p_rgh, Initial residual = 0.0020783433, Final residual = 2.0361449e-05, No Iterations 3
GAMG:  Solving for p_rgh, Initial residual = 0.00015315481, Final residual = 1.1904322e-06, No Iterations 4
GAMG:  Solving for p_rgh, Initial residual = 9.9676989e-05, Final residual = 6.2556495e-07, No Iterations 2
time step continuity errors : sum local = 0.00050143515, global = 0.00049817459, cumulative = 13.059905
rho min/max : 0.62497102 0.79253376
DILUPBiCGStab:  Solving for nuTilda, Initial residual = 0.89712269, Final residual = 0.050812862, No Iterations 1
bounding nuTilda, min: -3.9385566e-06 max: 0.00011734975 average: 8.4412553e-06
ExecutionTime = 2021.21 s  ClockTime = 2021 s

Time = 1576

DILUPBiCGStab:  Solving for h, Initial residual = 0.00022955217, Final residual = 4.5859451e-06, No Iterations 1
limitTemperature=limitT, Type=Lower, LimitedCells=0, CellsPercent=0, Tmin=300, UnlimitedTmin=373.00003
limitTemperature=limitT, Type=Upper, LimitedCells=0, CellsPercent=0, Tmax=473, UnlimitedTmax=459.52425
GAMG:  Solving for p_rgh, Initial residual = 0.0014224869, Final residual = 6.5924582e-06, No Iterations 4
GAMG:  Solving for p_rgh, Initial residual = 0.00013580126, Final residual = 1.0125154e-06, No Iterations 3
GAMG:  Solving for p_rgh, Initial residual = 9.6286745e-05, Final residual = 7.8489615e-07, No Iterations 1
time step continuity errors : sum local = 0.00050214502, global = 0.000497932, cumulative = 13.060403
rho min/max : 0.62496713 0.79252883
DILUPBiCGStab:  Solving for nuTilda, Initial residual = 0.46023114, Final residual = 0.04427012, No Iterations 10
ExecutionTime = 2022.55 s  ClockTime = 2023 s

Time = 1577

DILUPBiCGStab:  Solving for h, Initial residual = 0.00030771413, Final residual = 5.9665872e-06, No Iterations 1
limitTemperature=limitT, Type=Lower, LimitedCells=0, CellsPercent=0, Tmin=300, UnlimitedTmin=373.00003
limitTemperature=limitT, Type=Upper, LimitedCells=0, CellsPercent=0, Tmax=473, UnlimitedTmax=459.52353
GAMG:  Solving for p_rgh, Initial residual = 0.0016753929, Final residual = 8.423599e-06, No Iterations 4
GAMG:  Solving for p_rgh, Initial residual = 0.00014900842, Final residual = 1.3157439e-06, No Iterations 5
GAMG:  Solving for p_rgh, Initial residual = 0.00010236775, Final residual = 9.7656997e-07, No Iterations 2
time step continuity errors : sum local = 0.00050285959, global = 0.00049769091, cumulative = 13.060901
rho min/max : 0.62496316 0.79252379
DILUPBiCGStab:  Solving for nuTilda, Initial residual = 0.94586219, Final residual = 0.043403817, No Iterations 1
bounding nuTilda, min: -4.7593501e-06 max: 0.00013186007 average: 8.5707944e-06
ExecutionTime = 2023.81 s  ClockTime = 2024 s

Time = 1578

DILUPBiCGStab:  Solving for h, Initial residual = 0.00023293919, Final residual = 4.6675769e-06, No Iterations 1
limitTemperature=limitT, Type=Lower, LimitedCells=0, CellsPercent=0, Tmin=300, UnlimitedTmin=373.00003
limitTemperature=limitT, Type=Upper, LimitedCells=0, CellsPercent=0, Tmax=473, UnlimitedTmax=459.52281
GAMG:  Solving for p_rgh, Initial residual = 0.0019301545, Final residual = 9.5240102e-06, No Iterations 4
GAMG:  Solving for p_rgh, Initial residual = 0.00014019007, Final residual = 9.7550613e-07, No Iterations 4
GAMG:  Solving for p_rgh, Initial residual = 9.7616422e-05, Final residual = 8.1661065e-07, No Iterations 1
time step continuity errors : sum local = 0.0005018437, global = 0.00049745133, cumulative = 13.061398
rho min/max : 0.6249599 0.79251966
DILUPBiCGStab:  Solving for nuTilda, Initial residual = 0.51739191, Final residual = 0.024787243, No Iterations 10
ExecutionTime = 2025.2 s  ClockTime = 2025 s

Time = 1579

DILUPBiCGStab:  Solving for h, Initial residual = 0.00036632145, Final residual = 6.9847871e-06, No Iterations 1
limitTemperature=limitT, Type=Lower, LimitedCells=0, CellsPercent=0, Tmin=300, UnlimitedTmin=373.00003
limitTemperature=limitT, Type=Upper, LimitedCells=0, CellsPercent=0, Tmax=473, UnlimitedTmax=459.52209
GAMG:  Solving for p_rgh, Initial residual = 0.0011137307, Final residual = 6.5465666e-06, No Iterations 4
GAMG:  Solving for p_rgh, Initial residual = 0.00014246805, Final residual = 1.2686005e-06, No Iterations 4
GAMG:  Solving for p_rgh, Initial residual = 0.00010205908, Final residual = 8.8631533e-07, No Iterations 2
time step continuity errors : sum local = 0.00050164424, global = 0.00049721284, cumulative = 13.061895
rho min/max : 0.62495611 0.79251486
DILUPBiCGStab:  Solving for nuTilda, Initial residual = 0.9535309, Final residual = 0.093785394, No Iterations 1
bounding nuTilda, min: -3.326984e-06 max: 0.00014352992 average: 9.3043534e-06
ExecutionTime = 2026.45 s  ClockTime = 2027 s

Time = 1580

DILUPBiCGStab:  Solving for h, Initial residual = 0.00023475641, Final residual = 4.6698736e-06, No Iterations 1
limitTemperature=limitT, Type=Lower, LimitedCells=0, CellsPercent=0, Tmin=300, UnlimitedTmin=373.00003
limitTemperature=limitT, Type=Upper, LimitedCells=0, CellsPercent=0, Tmax=473, UnlimitedTmax=459.52137
GAMG:  Solving for p_rgh, Initial residual = 0.0024478496, Final residual = 2.4242936e-05, No Iterations 3
GAMG:  Solving for p_rgh, Initial residual = 0.00015541364, Final residual = 9.9309393e-07, No Iterations 5
GAMG:  Solving for p_rgh, Initial residual = 0.00010005123, Final residual = 9.4761347e-07, No Iterations 1
time step continuity errors : sum local = 0.00050199551, global = 0.00049697519, cumulative = 13.062392
rho min/max : 0.62495305 0.79251098
DILUPBiCGStab:  Solving for nuTilda, Initial residual = 0.59427273, Final residual = 0.058753094, No Iterations 3
bounding nuTilda, min: -1.6762288e-06 max: 0.0001256059 average: 8.8590021e-06
ExecutionTime = 2027.77 s  ClockTime = 2028 s

Time = 1581

DILUPBiCGStab:  Solving for h, Initial residual = 0.00021168428, Final residual = 4.2578854e-06, No Iterations 1
limitTemperature=limitT, Type=Lower, LimitedCells=0, CellsPercent=0, Tmin=300, UnlimitedTmin=373.00003
limitTemperature=limitT, Type=Upper, LimitedCells=0, CellsPercent=0, Tmax=473, UnlimitedTmax=459.52065
GAMG:  Solving for p_rgh, Initial residual = 0.0013194238, Final residual = 8.1797609e-06, No Iterations 4
GAMG:  Solving for p_rgh, Initial residual = 0.00015042041, Final residual = 1.1877677e-06, No Iterations 4
GAMG:  Solving for p_rgh, Initial residual = 9.8981155e-05, Final residual = 8.5446962e-07, No Iterations 2
time step continuity errors : sum local = 0.00050125041, global = 0.00049673878, cumulative = 13.062889
rho min/max : 0.62494947 0.79250644
DILUPBiCGStab:  Solving for nuTilda, Initial residual = 0.85058995, Final residual = 0.081598432, No Iterations 1
bounding nuTilda, min: -2.9691874e-06 max: 0.00012222528 average: 8.3170411e-06
ExecutionTime = 2029.05 s  ClockTime = 2029 s

Time = 1582

DILUPBiCGStab:  Solving for h, Initial residual = 0.00022544213, Final residual = 4.5246327e-06, No Iterations 1
limitTemperature=limitT, Type=Lower, LimitedCells=0, CellsPercent=0, Tmin=300, UnlimitedTmin=373.00003
limitTemperature=limitT, Type=Upper, LimitedCells=0, CellsPercent=0, Tmax=473, UnlimitedTmax=459.51992
GAMG:  Solving for p_rgh, Initial residual = 0.0015233903, Final residual = 7.8757138e-06, No Iterations 4
GAMG:  Solving for p_rgh, Initial residual = 0.0001381923, Final residual = 1.1487644e-06, No Iterations 5
GAMG:  Solving for p_rgh, Initial residual = 9.8086039e-05, Final residual = 8.9716752e-07, No Iterations 2
time step continuity errors : sum local = 0.0005013186, global = 0.00049650125, cumulative = 13.063385
rho min/max : 0.62494563 0.79250157
DILUPBiCGStab:  Solving for nuTilda, Initial residual = 0.41730106, Final residual = 0.040762442, No Iterations 10
bounding nuTilda, min: -5.8453128e-06 max: 0.00011826579 average: 1.0580375e-05
ExecutionTime = 2030.49 s  ClockTime = 2031 s

Time = 1583

DILUPBiCGStab:  Solving for h, Initial residual = 0.00018336135, Final residual = 3.6729865e-06, No Iterations 1
limitTemperature=limitT, Type=Lower, LimitedCells=0, CellsPercent=0, Tmin=300, UnlimitedTmin=373.00003
limitTemperature=limitT, Type=Upper, LimitedCells=0, CellsPercent=0, Tmax=473, UnlimitedTmax=459.5192
GAMG:  Solving for p_rgh, Initial residual = 0.0018719413, Final residual = 7.6609277e-06, No Iterations 4
GAMG:  Solving for p_rgh, Initial residual = 0.00014234399, Final residual = 1.3044042e-06, No Iterations 3
GAMG:  Solving for p_rgh, Initial residual = 9.8311475e-05, Final residual = 6.6741405e-07, No Iterations 2
time step continuity errors : sum local = 0.00049987363, global = 0.00049626426, cumulative = 13.063882
rho min/max : 0.62494174 0.79249663
DILUPBiCGStab:  Solving for nuTilda, Initial residual = 0.90362071, Final residual = 0.055677402, No Iterations 1
bounding nuTilda, min: -5.096482e-06 max: 0.00011930372 average: 8.6113253e-06
ExecutionTime = 2031.73 s  ClockTime = 2032 s

Time = 1584

DILUPBiCGStab:  Solving for h, Initial residual = 0.00022194899, Final residual = 4.4543785e-06, No Iterations 1
limitTemperature=limitT, Type=Lower, LimitedCells=0, CellsPercent=0, Tmin=300, UnlimitedTmin=373.00003
limitTemperature=limitT, Type=Upper, LimitedCells=0, CellsPercent=0, Tmax=473, UnlimitedTmax=459.51847
GAMG:  Solving for p_rgh, Initial residual = 0.0012800104, Final residual = 6.0463622e-06, No Iterations 4
GAMG:  Solving for p_rgh, Initial residual = 0.00013199522, Final residual = 9.6695266e-07, No Iterations 3
GAMG:  Solving for p_rgh, Initial residual = 9.5583813e-05, Final residual = 7.511249e-07, No Iterations 1
time step continuity errors : sum local = 0.0005000596, global = 0.00049602799, cumulative = 13.064378
rho min/max : 0.62493813 0.79249206
DILUPBiCGStab:  Solving for nuTilda, Initial residual = 0.48723186, Final residual = 0.028601506, No Iterations 10
ExecutionTime = 2033.08 s  ClockTime = 2033 s

Time = 1585

DILUPBiCGStab:  Solving for h, Initial residual = 0.000319154, Final residual = 6.1261581e-06, No Iterations 1
limitTemperature=limitT, Type=Lower, LimitedCells=0, CellsPercent=0, Tmin=300, UnlimitedTmin=373.00003
limitTemperature=limitT, Type=Upper, LimitedCells=0, CellsPercent=0, Tmax=473, UnlimitedTmax=459.51775
GAMG:  Solving for p_rgh, Initial residual = 0.0014582909, Final residual = 7.9771341e-06, No Iterations 4
GAMG:  Solving for p_rgh, Initial residual = 0.00014566732, Final residual = 1.2426444e-06, No Iterations 4
GAMG:  Solving for p_rgh, Initial residual = 0.0001012842, Final residual = 9.082074e-07, No Iterations 2
time step continuity errors : sum local = 0.00050039441, global = 0.00049579272, cumulative = 13.064874
rho min/max : 0.62493439 0.79248732
DILUPBiCGStab:  Solving for nuTilda, Initial residual = 0.94819551, Final residual = 0.042875255, No Iterations 1
bounding nuTilda, min: -5.651133e-06 max: 0.00013405566 average: 8.5825234e-06
ExecutionTime = 2034.33 s  ClockTime = 2034 s

Time = 1586

DILUPBiCGStab:  Solving for h, Initial residual = 0.00022780475, Final residual = 4.5772528e-06, No Iterations 1
limitTemperature=limitT, Type=Lower, LimitedCells=0, CellsPercent=0, Tmin=300, UnlimitedTmin=373.00003
limitTemperature=limitT, Type=Upper, LimitedCells=0, CellsPercent=0, Tmax=473, UnlimitedTmax=459.51702
GAMG:  Solving for p_rgh, Initial residual = 0.0019981881, Final residual = 9.7870653e-06, No Iterations 4
GAMG:  Solving for p_rgh, Initial residual = 0.00013999983, Final residual = 1.2128381e-06, No Iterations 4
GAMG:  Solving for p_rgh, Initial residual = 9.7377369e-05, Final residual = 7.3758311e-07, No Iterations 2
time step continuity errors : sum local = 0.00049957321, global = 0.00049555899, cumulative = 13.065369
rho min/max : 0.62493125 0.79248333
DILUPBiCGStab:  Solving for nuTilda, Initial residual = 0.5308759, Final residual = 0.040559662, No Iterations 9
ExecutionTime = 2035.7 s  ClockTime = 2036 s

Time = 1587

DILUPBiCGStab:  Solving for h, Initial residual = 0.00026590906, Final residual = 5.1826163e-06, No Iterations 1
limitTemperature=limitT, Type=Lower, LimitedCells=0, CellsPercent=0, Tmin=300, UnlimitedTmin=373.00003
limitTemperature=limitT, Type=Upper, LimitedCells=0, CellsPercent=0, Tmax=473, UnlimitedTmax=459.51629
GAMG:  Solving for p_rgh, Initial residual = 0.00098684301, Final residual = 5.6225152e-06, No Iterations 4
GAMG:  Solving for p_rgh, Initial residual = 0.00013433683, Final residual = 1.1287431e-06, No Iterations 3
GAMG:  Solving for p_rgh, Initial residual = 9.9084836e-05, Final residual = 8.0306375e-07, No Iterations 1
time step continuity errors : sum local = 0.00049950276, global = 0.00049532596, cumulative = 13.065864
rho min/max : 0.62492757 0.79247867
DILUPBiCGStab:  Solving for nuTilda, Initial residual = 0.93967069, Final residual = 0.043890129, No Iterations 1
bounding nuTilda, min: -5.5789728e-06 max: 0.00013456399 average: 8.4577676e-06
ExecutionTime = 2036.91 s  ClockTime = 2037 s


SIMPLE solution converged in 1587 iterations

End

Finalising parallel run
